ALP-POS-0c2c77e1-1_1
  -OEChem-07022116353D

 38 40  0     0  0  0  0  0  0999 V2000
    4.3203    1.9007   23.6667 C   0  0  0  0  0  0  0  0  0  0  0  0
    3.7303    0.7904   23.0629 C   0  0  0  0  0  0  0  0  0  0  0  0
    5.3165    2.6116   22.9974 C   0  0  0  0  0  0  0  0  0  0  0  0
   11.9780    0.4600   23.9150 C   0  0  0  0  0  0  0  0  0  0  0  0
    4.1367    0.3907   21.7898 C   0  0  0  0  0  0  0  0  0  0  0  0
    5.7229    2.2119   21.7243 C   0  0  0  0  0  0  0  0  0  0  0  0
   10.6560    0.0720   23.7350 C   0  0  0  0  0  0  0  0  0  0  0  0
   12.9840   -0.1200   23.1530 C   0  0  0  0  0  0  0  0  0  0  0  0
    4.9023    1.2144   18.6908 C   0  0  0  0  0  0  0  0  0  0  0  0
   11.3360   -1.5050   22.0650 C   0  0  0  0  0  0  0  0  0  0  0  0
    5.3213    0.8030   17.4358 C   0  0  0  0  0  0  0  0  0  0  0  0
    6.9335   -0.5706   18.3259 C   0  0  0  0  0  0  0  0  0  0  0  0
    5.1330    1.1015   21.1205 C   0  0  0  0  0  0  0  0  0  0  0  0
    5.5540    0.6867   19.7999 C   0  0  0  0  0  0  0  0  0  0  0  0
   10.3220   -0.8940   22.7910 C   0  0  0  0  0  0  0  0  0  0  0  0
    6.5902   -0.2234   19.6226 C   0  0  0  0  0  0  0  0  0  0  0  0
   12.6400   -1.1000   22.2390 C   0  0  0  0  0  0  0  0  0  0  0  0
    8.3880   -0.3240   21.3070 C   0  0  0  0  0  0  0  0  0  0  0  0
    8.8810   -1.1900   22.4510 C   0  0  0  0  0  0  0  0  0  0  0  0
    6.3237   -0.0791   17.2240 N   0  0  0  0  0  0  0  0  0  0  0  0
    7.2820   -0.7860   20.6970 N   0  0  0  0  0  0  0  0  0  0  0  0
    8.9170    0.7530   21.0260 O   0  0  0  0  0  0  0  0  0  0  0  0
   13.8840   -1.8490   21.2740 Cl  0  0  0  0  0  0  0  0  0  0  0  0
    4.0025    2.2127   24.6573 H   0  0  0  0  0  0  0  0  0  0  0  0
    2.9535    0.2378   23.5832 H   0  0  0  0  0  0  0  0  0  0  0  0
    5.7753    3.4771   23.4664 H   0  0  0  0  0  0  0  0  0  0  0  0
   12.2249    1.2198   24.6546 H   0  0  0  0  0  0  0  0  0  0  0  0
    3.6670   -0.4770   21.3323 H   0  0  0  0  0  0  0  0  0  0  0  0
    6.5002    2.7761   21.2145 H   0  0  0  0  0  0  0  0  0  0  0  0
    9.8763    0.5350   24.3454 H   0  0  0  0  0  0  0  0  0  0  0  0
   14.0077    0.1988   23.2842 H   0  0  0  0  0  0  0  0  0  0  0  0
    4.0884    1.9259   18.7876 H   0  0  0  0  0  0  0  0  0  0  0  0
   11.0892   -2.3009   21.3624 H   0  0  0  0  0  0  0  0  0  0  0  0
    4.8446    1.1846   16.5387 H   0  0  0  0  0  0  0  0  0  0  0  0
    7.7342   -1.2756   18.1226 H   0  0  0  0  0  0  0  0  0  0  0  0
    8.7774   -2.2383   22.1732 H   0  0  0  0  0  0  0  0  0  0  0  0
    8.2557   -1.0153   23.3257 H   0  0  0  0  0  0  0  0  0  0  0  0
    6.8982   -1.6624   21.0679 H   0  0  0  0  0  0  0  0  0  0  0  0
  1  2  1  0  0  0  0
  1  3  2  0  0  0  0
  2  5  2  0  0  0  0
  3  6  1  0  0  0  0
  4  7  2  0  0  0  0
  4  8  1  0  0  0  0
  5 13  1  0  0  0  0
  6 13  2  0  0  0  0
  7 15  1  0  0  0  0
  8 17  2  0  0  0  0
  9 11  2  0  0  0  0
  9 14  1  0  0  0  0
 10 15  2  0  0  0  0
 10 17  1  0  0  0  0
 11 20  1  0  0  0  0
 12 16  1  0  0  0  0
 12 20  2  0  0  0  0
 13 14  1  0  0  0  0
 14 16  2  0  0  0  0
 15 19  1  0  0  0  0
 16 21  1  0  0  0  0
 17 23  1  0  0  0  0
 18 19  1  0  0  0  0
 18 21  1  0  0  0  0
 18 22  2  0  0  0  0
  1 24  1  0  0  0  0
  2 25  1  0  0  0  0
  3 26  1  0  0  0  0
  4 27  1  0  0  0  0
  5 28  1  0  0  0  0
  6 29  1  0  0  0  0
  7 30  1  0  0  0  0
  8 31  1  0  0  0  0
  9 32  1  0  0  0  0
 10 33  1  0  0  0  0
 11 34  1  0  0  0  0
 12 35  1  0  0  0  0
 19 36  1  0  0  0  0
 19 37  1  0  0  0  0
 21 38  1  0  0  0  0
M  END
> <compound>
ALP-POS-0c2c77e1-1

> <compound_smiles>
c1ccc(cc1)c2ccncc2NC(=O)Cc3cccc(c3)Cl

> <enantiomer_smiles>
c1ccc(cc1)c2ccncc2NC(=O)Cc3cccc(c3)Cl

> <scaffold>
chlorobenzene-linker

> <canonical_CID>
ALP-POS-0c2c77e1-1

> <r_inhibition_at_20_uM>

> <r_inhibition_at_50_uM>

> <r_avg_IC50>
25.1337812588461

> <f_inhibition_at_20_uM>

> <f_inhibition_at_50_uM>

> <f_avg_IC50>
40.8917363574677

> <f_avg_pIC50>

> <relative_solubility_at_20_uM>

> <relative_solubility_at_100_uM>

> <trypsin_IC50>

> <NMR_std_ratio>

> <acrylamide>
False

> <chloroacetamide>
False

> <series>
3-aminopyridine-like

> <frag_id>
x11507

> <clash_score>
0

> <docking_score>
-10.253814697265625

> <overlap_score>
0.9141033887863159

> <MMFF_internal_energy>
97.74281132729199

> <docked_smiles>
c1ccc(cc1)c2ccncc2NC(=O)Cc3cccc(c3)Cl

$$$$
