ALP-POS-95b75b4d-5_1
  -OEChem-07022116353D

 35 37  0     0  0  0  0  0  0999 V2000
   11.9780    0.4600   23.9150 C   0  0  0  0  0  0  0  0  0  0  0  0
   10.6560    0.0720   23.7350 C   0  0  0  0  0  0  0  0  0  0  0  0
   12.9840   -0.1200   23.1530 C   0  0  0  0  0  0  0  0  0  0  0  0
    4.6265    0.7569   18.6065 C   0  0  0  0  0  0  0  0  0  0  0  0
   11.3360   -1.5050   22.0650 C   0  0  0  0  0  0  0  0  0  0  0  0
    5.3611    0.9105   17.4418 C   0  0  0  0  0  0  0  0  0  0  0  0
    7.2374   -0.0079   18.3980 C   0  0  0  0  0  0  0  0  0  0  0  0
    5.2605    0.1881   19.7055 C   0  0  0  0  0  0  0  0  0  0  0  0
   10.3220   -0.8940   22.7910 C   0  0  0  0  0  0  0  0  0  0  0  0
    6.5908   -0.2043   19.6076 C   0  0  0  0  0  0  0  0  0  0  0  0
   12.6400   -1.1000   22.2390 C   0  0  0  0  0  0  0  0  0  0  0  0
    8.3880   -0.3240   21.3070 C   0  0  0  0  0  0  0  0  0  0  0  0
    3.0272   -0.3232   20.8992 C   0  0  0  0  0  0  0  0  0  0  0  0
    3.4599    1.0354   21.3542 C   0  0  0  0  0  0  0  0  0  0  0  0
    4.4935    0.0091   20.9739 C   0  0  0  0  0  0  0  0  0  0  0  0
    8.8810   -1.1900   22.4510 C   0  0  0  0  0  0  0  0  0  0  0  0
    6.6548    0.5415   17.3087 N   0  0  0  0  0  0  0  0  0  0  0  0
    7.2820   -0.7860   20.6970 N   0  0  0  0  0  0  0  0  0  0  0  0
    8.9170    0.7530   21.0260 O   0  0  0  0  0  0  0  0  0  0  0  0
   13.8840   -1.8490   21.2740 Cl  0  0  0  0  0  0  0  0  0  0  0  0
   12.2249    1.2198   24.6546 H   0  0  0  0  0  0  0  0  0  0  0  0
    9.8763    0.5350   24.3454 H   0  0  0  0  0  0  0  0  0  0  0  0
   14.0077    0.1988   23.2842 H   0  0  0  0  0  0  0  0  0  0  0  0
    3.5898    1.0729   18.6489 H   0  0  0  0  0  0  0  0  0  0  0  0
   11.0892   -2.3009   21.3624 H   0  0  0  0  0  0  0  0  0  0  0  0
    4.9139    1.3495   16.5561 H   0  0  0  0  0  0  0  0  0  0  0  0
    8.2759   -0.2937   18.2591 H   0  0  0  0  0  0  0  0  0  0  0  0
    2.6328   -1.0031   21.6453 H   0  0  0  0  0  0  0  0  0  0  0  0
    2.5497   -0.4008   19.9300 H   0  0  0  0  0  0  0  0  0  0  0  0
    3.2749    1.8710   20.6896 H   0  0  0  0  0  0  0  0  0  0  0  0
    3.3562    1.2725   22.4064 H   0  0  0  0  0  0  0  0  0  0  0  0
    5.0497   -0.4392   21.7861 H   0  0  0  0  0  0  0  0  0  0  0  0
    8.7709   -2.2387   22.1706 H   0  0  0  0  0  0  0  0  0  0  0  0
    8.2491   -1.0157   23.3232 H   0  0  0  0  0  0  0  0  0  0  0  0
    6.8973   -1.6552   21.0612 H   0  0  0  0  0  0  0  0  0  0  0  0
  1  2  1  0  0  0  0
  1  3  2  0  0  0  0
  2  9  2  0  0  0  0
  3 11  1  0  0  0  0
  4  6  2  0  0  0  0
  4  8  1  0  0  0  0
  5  9  1  0  0  0  0
  5 11  2  0  0  0  0
  6 17  1  0  0  0  0
  7 10  1  0  0  0  0
  7 17  2  0  0  0  0
  8 10  2  0  0  0  0
  8 15  1  0  0  0  0
  9 16  1  0  0  0  0
 10 18  1  0  0  0  0
 11 20  1  0  0  0  0
 12 16  1  0  0  0  0
 12 18  1  0  0  0  0
 12 19  2  0  0  0  0
 13 14  1  0  0  0  0
 13 15  1  0  0  0  0
 14 15  1  0  0  0  0
  1 21  1  0  0  0  0
  2 22  1  0  0  0  0
  3 23  1  0  0  0  0
  4 24  1  0  0  0  0
  5 25  1  0  0  0  0
  6 26  1  0  0  0  0
  7 27  1  0  0  0  0
 13 28  1  0  0  0  0
 13 29  1  0  0  0  0
 14 30  1  0  0  0  0
 14 31  1  0  0  0  0
 15 32  1  0  0  0  0
 16 33  1  0  0  0  0
 16 34  1  0  0  0  0
 18 35  1  0  0  0  0
M  END
> <compound>
ALP-POS-95b75b4d-5

> <compound_smiles>
c1cc(cc(c1)Cl)CC(=O)Nc2cnccc2C3CC3

> <enantiomer_smiles>
c1cc(cc(c1)Cl)CC(=O)Nc2cnccc2C3CC3

> <scaffold>
chlorobenzene-linker

> <canonical_CID>
ALP-POS-95b75b4d-5

> <r_inhibition_at_20_uM>

> <r_inhibition_at_50_uM>

> <r_avg_IC50>
7.39797406776628

> <f_inhibition_at_20_uM>

> <f_inhibition_at_50_uM>

> <f_avg_IC50>
7.1736359117104

> <f_avg_pIC50>

> <relative_solubility_at_20_uM>

> <relative_solubility_at_100_uM>

> <trypsin_IC50>

> <NMR_std_ratio>

> <acrylamide>
False

> <chloroacetamide>
False

> <series>
3-aminopyridine-like

> <frag_id>
x11543

> <clash_score>
1.9998733077267783

> <docking_score>
-7.881078720092773

> <overlap_score>
0.8768181800842285

> <MMFF_internal_energy>
86.52708001639581

> <docked_smiles>
c1cc(cc(c1)Cl)CC(=O)Nc2cnccc2C3CC3

$$$$
