EDG-MED-0da5ad92-15_1
  -OEChem-07022116353D

 30 31  0     0  0  0  0  0  0999 V2000
   11.9780    0.4600   23.9150 C   0  0  0  0  0  0  0  0  0  0  0  0
   10.6560    0.0720   23.7350 C   0  0  0  0  0  0  0  0  0  0  0  0
   12.9840   -0.1200   23.1530 C   0  0  0  0  0  0  0  0  0  0  0  0
    4.5115    0.7537   18.8599 C   0  0  0  0  0  0  0  0  0  0  0  0
   11.3360   -1.5050   22.0650 C   0  0  0  0  0  0  0  0  0  0  0  0
    5.1831    1.0155   17.6827 C   0  0  0  0  0  0  0  0  0  0  0  0
   10.3220   -0.8940   22.7910 C   0  0  0  0  0  0  0  0  0  0  0  0
    5.2142    0.1449   19.8848 C   0  0  0  0  0  0  0  0  0  0  0  0
   12.6400   -1.1000   22.2390 C   0  0  0  0  0  0  0  0  0  0  0  0
    6.5418   -0.1622   19.6645 C   0  0  0  0  0  0  0  0  0  0  0  0
    8.3880   -0.3240   21.3070 C   0  0  0  0  0  0  0  0  0  0  0  0
    4.5262   -0.1552   21.1729 C   0  0  0  0  0  0  0  0  0  0  0  0
    8.8810   -1.1900   22.4510 C   0  0  0  0  0  0  0  0  0  0  0  0
    6.4830    0.7040   17.4948 N   0  0  0  0  0  0  0  0  0  0  0  0
    7.1735    0.1052   18.5020 N   0  0  0  0  0  0  0  0  0  0  0  0
    7.2820   -0.7860   20.6970 N   0  0  0  0  0  0  0  0  0  0  0  0
    8.9170    0.7530   21.0260 O   0  0  0  0  0  0  0  0  0  0  0  0
   13.8840   -1.8490   21.2740 Cl  0  0  0  0  0  0  0  0  0  0  0  0
   12.2249    1.2198   24.6546 H   0  0  0  0  0  0  0  0  0  0  0  0
    9.8763    0.5350   24.3454 H   0  0  0  0  0  0  0  0  0  0  0  0
   14.0077    0.1988   23.2842 H   0  0  0  0  0  0  0  0  0  0  0  0
    3.4659    1.0208   18.9688 H   0  0  0  0  0  0  0  0  0  0  0  0
   11.0892   -2.3009   21.3624 H   0  0  0  0  0  0  0  0  0  0  0  0
    4.6891    1.4906   16.8433 H   0  0  0  0  0  0  0  0  0  0  0  0
    4.0763   -1.1553   21.1424 H   0  0  0  0  0  0  0  0  0  0  0  0
    5.2259   -0.1146   22.0180 H   0  0  0  0  0  0  0  0  0  0  0  0
    3.7340    0.5760   21.3819 H   0  0  0  0  0  0  0  0  0  0  0  0
    8.7709   -2.2387   22.1706 H   0  0  0  0  0  0  0  0  0  0  0  0
    8.2491   -1.0157   23.3232 H   0  0  0  0  0  0  0  0  0  0  0  0
    6.9372   -1.6894   21.0149 H   0  0  0  0  0  0  0  0  0  0  0  0
  1  2  2  0  0  0  0
  1  3  1  0  0  0  0
  2  7  1  0  0  0  0
  3  9  2  0  0  0  0
  4  6  2  0  0  0  0
  4  8  1  0  0  0  0
  5  7  2  0  0  0  0
  5  9  1  0  0  0  0
  6 14  1  0  0  0  0
  7 13  1  0  0  0  0
  8 10  2  0  0  0  0
  8 12  1  0  0  0  0
  9 18  1  0  0  0  0
 10 15  1  0  0  0  0
 10 16  1  0  0  0  0
 11 13  1  0  0  0  0
 11 16  1  0  0  0  0
 11 17  2  0  0  0  0
 14 15  2  0  0  0  0
  1 19  1  0  0  0  0
  2 20  1  0  0  0  0
  3 21  1  0  0  0  0
  4 22  1  0  0  0  0
  5 23  1  0  0  0  0
  6 24  1  0  0  0  0
 12 25  1  0  0  0  0
 12 26  1  0  0  0  0
 12 27  1  0  0  0  0
 13 28  1  0  0  0  0
 13 29  1  0  0  0  0
 16 30  1  0  0  0  0
M  END
> <compound>
EDG-MED-0da5ad92-15

> <compound_smiles>
Cc1ccnnc1NC(=O)Cc2cccc(c2)Cl

> <enantiomer_smiles>
Cc1ccnnc1NC(=O)Cc2cccc(c2)Cl

> <scaffold>
chlorobenzene-linker

> <canonical_CID>
EDG-MED-0da5ad92-15

> <r_inhibition_at_20_uM>

> <r_inhibition_at_50_uM>

> <r_avg_IC50>
99.0

> <f_inhibition_at_20_uM>

> <f_inhibition_at_50_uM>

> <f_avg_IC50>
99.5

> <f_avg_pIC50>

> <relative_solubility_at_20_uM>

> <relative_solubility_at_100_uM>

> <trypsin_IC50>

> <NMR_std_ratio>

> <acrylamide>
False

> <chloroacetamide>
False

> <series>
3-aminopyridine-like

> <frag_id>
x11485

> <clash_score>
0

> <docking_score>
-6.87052059173584

> <overlap_score>
0.8360503911972046

> <MMFF_internal_energy>
49.86369725505912

> <docked_smiles>
Cc1ccnnc1NC(=O)Cc2cccc(c2)Cl

$$$$
