EDJ-MED-c8e7a002-5_1
  -OEChem-07022116353D

 37 39  0     0  0  0  0  0  0999 V2000
   11.9780    0.4600   23.9150 C   0  0  0  0  0  0  0  0  0  0  0  0
   10.6560    0.0720   23.7350 C   0  0  0  0  0  0  0  0  0  0  0  0
   12.9840   -0.1200   23.1530 C   0  0  0  0  0  0  0  0  0  0  0  0
   11.3360   -1.5050   22.0650 C   0  0  0  0  0  0  0  0  0  0  0  0
    2.9073    0.5828   20.3688 C   0  0  0  0  0  0  0  0  0  0  0  0
    5.1817    0.1536   19.7875 C   0  0  0  0  0  0  0  0  0  0  0  0
   10.3220   -0.8940   22.7910 C   0  0  0  0  0  0  0  0  0  0  0  0
    4.1573    0.0874   20.7401 C   0  0  0  0  0  0  0  0  0  0  0  0
   12.6400   -1.1000   22.2390 C   0  0  0  0  0  0  0  0  0  0  0  0
    2.7444    1.1090   19.0916 C   0  0  0  0  0  0  0  0  0  0  0  0
    4.8837    0.7033   18.5504 C   0  0  0  0  0  0  0  0  0  0  0  0
    6.5430   -0.1967   19.6885 C   0  0  0  0  0  0  0  0  0  0  0  0
    8.3880   -0.3240   21.3070 C   0  0  0  0  0  0  0  0  0  0  0  0
    4.3384   -0.4779   22.1101 C   0  0  0  0  0  0  0  0  0  0  0  0
    8.8810   -1.1900   22.4510 C   0  0  0  0  0  0  0  0  0  0  0  0
    1.3983    1.6356   18.7084 C   0  0  0  0  0  0  0  0  0  0  0  0
    3.7025    1.1949   18.1372 N   0  0  0  0  0  0  0  0  0  0  0  0
    7.0694    0.1015   18.4961 N   0  0  0  0  0  0  0  0  0  0  0  0
    6.0378    0.6468   17.8263 N   0  0  0  0  0  0  0  0  0  0  0  0
    7.2820   -0.7860   20.6970 N   0  0  0  0  0  0  0  0  0  0  0  0
    8.9170    0.7530   21.0260 O   0  0  0  0  0  0  0  0  0  0  0  0
    0.4691    1.5265   19.7015 F   0  0  0  0  0  0  0  0  0  0  0  0
    1.4088    2.9571   18.3694 F   0  0  0  0  0  0  0  0  0  0  0  0
    0.8698    0.9827   17.6345 F   0  0  0  0  0  0  0  0  0  0  0  0
   13.8840   -1.8490   21.2740 Cl  0  0  0  0  0  0  0  0  0  0  0  0
   12.2249    1.2198   24.6546 H   0  0  0  0  0  0  0  0  0  0  0  0
    9.8763    0.5350   24.3454 H   0  0  0  0  0  0  0  0  0  0  0  0
   14.0077    0.1988   23.2842 H   0  0  0  0  0  0  0  0  0  0  0  0
   11.0892   -2.3009   21.3624 H   0  0  0  0  0  0  0  0  0  0  0  0
    2.0755    0.5583   21.0673 H   0  0  0  0  0  0  0  0  0  0  0  0
    4.1195   -1.5521   22.1103 H   0  0  0  0  0  0  0  0  0  0  0  0
    5.3651   -0.3306   22.4677 H   0  0  0  0  0  0  0  0  0  0  0  0
    3.6754    0.0139   22.8330 H   0  0  0  0  0  0  0  0  0  0  0  0
    8.7774   -2.2383   22.1732 H   0  0  0  0  0  0  0  0  0  0  0  0
    8.2557   -1.0153   23.3257 H   0  0  0  0  0  0  0  0  0  0  0  0
    6.1925    0.9591   16.8759 H   0  0  0  0  0  0  0  0  0  0  0  0
    6.9394   -1.7028   21.0257 H   0  0  0  0  0  0  0  0  0  0  0  0
  1  2  2  0  0  0  0
  1  3  1  0  0  0  0
  2  7  1  0  0  0  0
  3  9  2  0  0  0  0
  4  7  2  0  0  0  0
  4  9  1  0  0  0  0
  5  8  1  0  0  0  0
  5 10  2  0  0  0  0
  6  8  2  0  0  0  0
  6 11  1  0  0  0  0
  6 12  1  0  0  0  0
  7 15  1  0  0  0  0
  8 14  1  0  0  0  0
  9 25  1  0  0  0  0
 10 16  1  0  0  0  0
 10 17  1  0  0  0  0
 11 17  2  0  0  0  0
 11 19  1  0  0  0  0
 12 18  2  0  0  0  0
 12 20  1  0  0  0  0
 13 15  1  0  0  0  0
 13 20  1  0  0  0  0
 13 21  2  0  0  0  0
 16 22  1  0  0  0  0
 16 23  1  0  0  0  0
 16 24  1  0  0  0  0
 18 19  1  0  0  0  0
  1 26  1  0  0  0  0
  2 27  1  0  0  0  0
  3 28  1  0  0  0  0
  4 29  1  0  0  0  0
  5 30  1  0  0  0  0
 14 31  1  0  0  0  0
 14 32  1  0  0  0  0
 14 33  1  0  0  0  0
 15 34  1  0  0  0  0
 15 35  1  0  0  0  0
 19 36  1  0  0  0  0
 20 37  1  0  0  0  0
M  END
> <compound>
EDJ-MED-c8e7a002-5

> <compound_smiles>
Cc1cc(nc2c1c([nH]n2)NC(=O)Cc3cccc(c3)Cl)C(F)(F)F

> <enantiomer_smiles>
Cc1cc(nc2c1c([nH]n2)NC(=O)Cc3cccc(c3)Cl)C(F)(F)F

> <scaffold>
chlorobenzene-linker

> <canonical_CID>
EDJ-MED-c8e7a002-5

> <r_inhibition_at_20_uM>

> <r_inhibition_at_50_uM>

> <r_avg_IC50>
81.9779355790229

> <f_inhibition_at_20_uM>

> <f_inhibition_at_50_uM>

> <f_avg_IC50>
99.5

> <f_avg_pIC50>

> <relative_solubility_at_20_uM>

> <relative_solubility_at_100_uM>

> <trypsin_IC50>

> <NMR_std_ratio>

> <acrylamide>
False

> <chloroacetamide>
False

> <series>
3-aminopyridine-like

> <frag_id>

> <clash_score>
2.227706505293639

> <docking_score>
1.590554118156433

> <overlap_score>
0.8768002390861511

> <MMFF_internal_energy>
117.3350552294185

> <docked_smiles>
Cc1cc(nc2c1c(n[nH]2)NC(=O)Cc3cccc(c3)Cl)C(F)(F)F

$$$$
