EDJ-MED-a364e151-1_1
  -OEChem-07022116353D

 38 40  0     0  0  0  0  0  0999 V2000
   11.9780    0.4600   23.9150 C   0  0  0  0  0  0  0  0  0  0  0  0
   10.6560    0.0720   23.7350 C   0  0  0  0  0  0  0  0  0  0  0  0
   12.9840   -0.1200   23.1530 C   0  0  0  0  0  0  0  0  0  0  0  0
   11.3360   -1.5050   22.0650 C   0  0  0  0  0  0  0  0  0  0  0  0
    5.3381    0.7876   17.4227 C   0  0  0  0  0  0  0  0  0  0  0  0
    6.9429   -0.5784   18.3305 C   0  0  0  0  0  0  0  0  0  0  0  0
    4.8934    1.2072   18.6738 C   0  0  0  0  0  0  0  0  0  0  0  0
    5.5539    0.6974   19.8005 C   0  0  0  0  0  0  0  0  0  0  0  0
   10.3220   -0.8940   22.7910 C   0  0  0  0  0  0  0  0  0  0  0  0
    6.5902   -0.2233   19.6225 C   0  0  0  0  0  0  0  0  0  0  0  0
   12.6400   -1.1000   22.2390 C   0  0  0  0  0  0  0  0  0  0  0  0
    8.3880   -0.3240   21.3070 C   0  0  0  0  0  0  0  0  0  0  0  0
    3.7866    2.2187   18.7855 C   0  0  0  0  0  0  0  0  0  0  0  0
    5.1295    1.0747   21.1970 C   0  0  0  0  0  0  0  0  0  0  0  0
    3.1774    2.2839   20.1855 C   0  0  0  0  0  0  0  0  0  0  0  0
    4.2736    2.3402   21.2432 C   0  0  0  0  0  0  0  0  0  0  0  0
    8.8810   -1.1900   22.4510 C   0  0  0  0  0  0  0  0  0  0  0  0
    6.3437   -0.0933   17.2230 N   0  0  0  0  0  0  0  0  0  0  0  0
    7.2820   -0.7860   20.6970 N   0  0  0  0  0  0  0  0  0  0  0  0
    8.9170    0.7530   21.0260 O   0  0  0  0  0  0  0  0  0  0  0  0
   13.8840   -1.8490   21.2740 Cl  0  0  0  0  0  0  0  0  0  0  0  0
   12.2249    1.2198   24.6546 H   0  0  0  0  0  0  0  0  0  0  0  0
    9.8763    0.5350   24.3454 H   0  0  0  0  0  0  0  0  0  0  0  0
   14.0077    0.1988   23.2842 H   0  0  0  0  0  0  0  0  0  0  0  0
   11.0892   -2.3009   21.3624 H   0  0  0  0  0  0  0  0  0  0  0  0
    4.8795    1.1624   16.5121 H   0  0  0  0  0  0  0  0  0  0  0  0
    7.7456   -1.2843   18.1372 H   0  0  0  0  0  0  0  0  0  0  0  0
    4.1598    3.2138   18.5159 H   0  0  0  0  0  0  0  0  0  0  0  0
    3.0054    1.9508   18.0632 H   0  0  0  0  0  0  0  0  0  0  0  0
    4.5540    0.2625   21.6571 H   0  0  0  0  0  0  0  0  0  0  0  0
    6.0332    1.2286   21.8003 H   0  0  0  0  0  0  0  0  0  0  0  0
    2.5381    3.1715   20.2733 H   0  0  0  0  0  0  0  0  0  0  0  0
    2.5376    1.4096   20.3496 H   0  0  0  0  0  0  0  0  0  0  0  0
    3.8189    2.4475   22.2363 H   0  0  0  0  0  0  0  0  0  0  0  0
    4.9080    3.2193   21.0837 H   0  0  0  0  0  0  0  0  0  0  0  0
    8.7774   -2.2383   22.1732 H   0  0  0  0  0  0  0  0  0  0  0  0
    8.2557   -1.0153   23.3257 H   0  0  0  0  0  0  0  0  0  0  0  0
    6.8982   -1.6624   21.0679 H   0  0  0  0  0  0  0  0  0  0  0  0
  1  2  1  0  0  0  0
  1  3  2  0  0  0  0
  2  9  2  0  0  0  0
  3 11  1  0  0  0  0
  4  9  1  0  0  0  0
  4 11  2  0  0  0  0
  5  7  2  0  0  0  0
  5 18  1  0  0  0  0
  6 10  1  0  0  0  0
  6 18  2  0  0  0  0
  7  8  1  0  0  0  0
  7 13  1  0  0  0  0
  8 10  2  0  0  0  0
  8 14  1  0  0  0  0
  9 17  1  0  0  0  0
 10 19  1  0  0  0  0
 11 21  1  0  0  0  0
 12 17  1  0  0  0  0
 12 19  1  0  0  0  0
 12 20  2  0  0  0  0
 13 15  1  0  0  0  0
 14 16  1  0  0  0  0
 15 16  1  0  0  0  0
  1 22  1  0  0  0  0
  2 23  1  0  0  0  0
  3 24  1  0  0  0  0
  4 25  1  0  0  0  0
  5 26  1  0  0  0  0
  6 27  1  0  0  0  0
 13 28  1  0  0  0  0
 13 29  1  0  0  0  0
 14 30  1  0  0  0  0
 14 31  1  0  0  0  0
 15 32  1  0  0  0  0
 15 33  1  0  0  0  0
 16 34  1  0  0  0  0
 16 35  1  0  0  0  0
 17 36  1  0  0  0  0
 17 37  1  0  0  0  0
 19 38  1  0  0  0  0
M  END
> <compound>
EDJ-MED-a364e151-1

> <compound_smiles>
c1cc(cc(c1)Cl)CC(=O)Nc2cncc3c2CCCC3

> <enantiomer_smiles>
c1cc(cc(c1)Cl)CC(=O)Nc2cncc3c2CCCC3

> <scaffold>
chlorobenzene-linker

> <canonical_CID>
EDJ-MED-a364e151-1

> <r_inhibition_at_20_uM>

> <r_inhibition_at_50_uM>

> <r_avg_IC50>
1.84189968986135

> <f_inhibition_at_20_uM>

> <f_inhibition_at_50_uM>

> <f_avg_IC50>
99.5

> <f_avg_pIC50>

> <relative_solubility_at_20_uM>

> <relative_solubility_at_100_uM>

> <trypsin_IC50>

> <NMR_std_ratio>

> <acrylamide>
False

> <chloroacetamide>
False

> <series>
3-aminopyridine-like

> <frag_id>
x11431

> <clash_score>
0

> <docking_score>
-11.312568664550781

> <overlap_score>
0.9728519320487976

> <MMFF_internal_energy>
80.17400831623708

> <docked_smiles>
c1cc(cc(c1)Cl)CC(=O)Nc2cncc3c2CCCC3

$$$$
