EDJ-MED-c8e7a002-4_1
  -OEChem-07022116353D

 34 36  0     0  0  0  0  0  0999 V2000
   11.9780    0.4600   23.9150 C   0  0  0  0  0  0  0  0  0  0  0  0
   10.6560    0.0720   23.7350 C   0  0  0  0  0  0  0  0  0  0  0  0
   12.9840   -0.1200   23.1530 C   0  0  0  0  0  0  0  0  0  0  0  0
   11.3360   -1.5050   22.0650 C   0  0  0  0  0  0  0  0  0  0  0  0
    3.4328    1.1770   19.2460 C   0  0  0  0  0  0  0  0  0  0  0  0
   10.3220   -0.8940   22.7910 C   0  0  0  0  0  0  0  0  0  0  0  0
   12.6400   -1.1000   22.2390 C   0  0  0  0  0  0  0  0  0  0  0  0
    5.3261    0.2585   19.8417 C   0  0  0  0  0  0  0  0  0  0  0  0
    6.5634    0.7843   17.3842 C   0  0  0  0  0  0  0  0  0  0  0  0
    5.2913    1.1678   17.5744 C   0  0  0  0  0  0  0  0  0  0  0  0
    6.6807   -0.1529   19.6459 C   0  0  0  0  0  0  0  0  0  0  0  0
    7.2916    0.0959   18.4598 C   0  0  0  0  0  0  0  0  0  0  0  0
    8.3880   -0.3240   21.3070 C   0  0  0  0  0  0  0  0  0  0  0  0
    8.7052   -0.2737   18.1031 C   0  0  0  0  0  0  0  0  0  0  0  0
    8.8810   -1.1900   22.4510 C   0  0  0  0  0  0  0  0  0  0  0  0
    3.2946    0.7399   20.4771 N   0  0  0  0  0  0  0  0  0  0  0  0
    4.4884    0.1600   20.8546 N   0  0  0  0  0  0  0  0  0  0  0  0
    4.6912    0.9021   18.7935 N   0  0  0  0  0  0  0  0  0  0  0  0
    7.2820   -0.7860   20.6970 N   0  0  0  0  0  0  0  0  0  0  0  0
    8.9170    0.7530   21.0260 O   0  0  0  0  0  0  0  0  0  0  0  0
   13.8840   -1.8490   21.2740 Cl  0  0  0  0  0  0  0  0  0  0  0  0
   12.2249    1.2198   24.6546 H   0  0  0  0  0  0  0  0  0  0  0  0
    9.8763    0.5350   24.3454 H   0  0  0  0  0  0  0  0  0  0  0  0
   14.0077    0.1988   23.2842 H   0  0  0  0  0  0  0  0  0  0  0  0
   11.0892   -2.3009   21.3624 H   0  0  0  0  0  0  0  0  0  0  0  0
    2.6817    1.6814   18.6545 H   0  0  0  0  0  0  0  0  0  0  0  0
    7.0659    0.9773   16.4427 H   0  0  0  0  0  0  0  0  0  0  0  0
    4.7088    1.6777   16.8170 H   0  0  0  0  0  0  0  0  0  0  0  0
    9.3689    0.5420   18.3754 H   0  0  0  0  0  0  0  0  0  0  0  0
    8.7694   -0.4590   17.0343 H   0  0  0  0  0  0  0  0  0  0  0  0
    8.9879   -1.1738   18.6421 H   0  0  0  0  0  0  0  0  0  0  0  0
    8.2535   -1.0146   23.3240 H   0  0  0  0  0  0  0  0  0  0  0  0
    8.7756   -2.2377   22.1724 H   0  0  0  0  0  0  0  0  0  0  0  0
    6.8588   -1.6468   21.0213 H   0  0  0  0  0  0  0  0  0  0  0  0
  1  2  2  0  0  0  0
  1  3  1  0  0  0  0
  2  6  1  0  0  0  0
  3  7  2  0  0  0  0
  4  6  2  0  0  0  0
  4  7  1  0  0  0  0
  5 16  2  0  0  0  0
  5 18  1  0  0  0  0
  6 15  1  0  0  0  0
  7 21  1  0  0  0  0
  8 11  1  0  0  0  0
  8 17  2  0  0  0  0
  8 18  1  0  0  0  0
  9 10  2  0  0  0  0
  9 12  1  0  0  0  0
 10 18  1  0  0  0  0
 11 12  2  0  0  0  0
 11 19  1  0  0  0  0
 12 14  1  0  0  0  0
 13 15  1  0  0  0  0
 13 19  1  0  0  0  0
 13 20  2  0  0  0  0
 16 17  1  0  0  0  0
  1 22  1  0  0  0  0
  2 23  1  0  0  0  0
  3 24  1  0  0  0  0
  4 25  1  0  0  0  0
  5 26  1  0  0  0  0
  9 27  1  0  0  0  0
 10 28  1  0  0  0  0
 14 29  1  0  0  0  0
 14 30  1  0  0  0  0
 14 31  1  0  0  0  0
 15 32  1  0  0  0  0
 15 33  1  0  0  0  0
 19 34  1  0  0  0  0
M  END
> <compound>
EDJ-MED-c8e7a002-4

> <compound_smiles>
Cc1ccn2cnnc2c1NC(=O)Cc3cccc(c3)Cl

> <enantiomer_smiles>
Cc1ccn2cnnc2c1NC(=O)Cc3cccc(c3)Cl

> <scaffold>
chlorobenzene-linker

> <canonical_CID>
EDJ-MED-c8e7a002-4

> <r_inhibition_at_20_uM>

> <r_inhibition_at_50_uM>

> <r_avg_IC50>
83.3781317147818

> <f_inhibition_at_20_uM>

> <f_inhibition_at_50_uM>

> <f_avg_IC50>
75.2573815369256

> <f_avg_pIC50>

> <relative_solubility_at_20_uM>

> <relative_solubility_at_100_uM>

> <trypsin_IC50>

> <NMR_std_ratio>

> <acrylamide>
False

> <chloroacetamide>
False

> <series>
3-aminopyridine-like

> <frag_id>

> <clash_score>
0

> <docking_score>
-4.628418922424316

> <overlap_score>
0.9168944954872131

> <MMFF_internal_energy>
71.68986677250949

> <docked_smiles>
Cc1ccn2cnnc2c1NC(=O)Cc3cccc(c3)Cl

$$$$
