EDJ-MED-976da9a6-1_1
  -OEChem-07022116353D

 36 38  0     0  0  0  0  0  0999 V2000
   11.9780    0.4600   23.9150 C   0  0  0  0  0  0  0  0  0  0  0  0
   10.6560    0.0720   23.7350 C   0  0  0  0  0  0  0  0  0  0  0  0
   12.9840   -0.1200   23.1530 C   0  0  0  0  0  0  0  0  0  0  0  0
   11.3360   -1.5050   22.0650 C   0  0  0  0  0  0  0  0  0  0  0  0
    5.3449    0.8662   17.4528 C   0  0  0  0  0  0  0  0  0  0  0  0
    7.2306   -0.0322   18.4102 C   0  0  0  0  0  0  0  0  0  0  0  0
    4.6091    0.7288   18.6246 C   0  0  0  0  0  0  0  0  0  0  0  0
   10.3220   -0.8940   22.7910 C   0  0  0  0  0  0  0  0  0  0  0  0
    6.5902   -0.2243   19.6234 C   0  0  0  0  0  0  0  0  0  0  0  0
    5.2534    0.1514   19.7207 C   0  0  0  0  0  0  0  0  0  0  0  0
   12.6400   -1.1000   22.2390 C   0  0  0  0  0  0  0  0  0  0  0  0
    8.3880   -0.3240   21.3070 C   0  0  0  0  0  0  0  0  0  0  0  0
    3.1757    1.1565   18.6946 C   0  0  0  0  0  0  0  0  0  0  0  0
    2.7312    1.2648   20.1474 C   0  0  0  0  0  0  0  0  0  0  0  0
    3.2183    0.0436   20.9131 C   0  0  0  0  0  0  0  0  0  0  0  0
    8.8810   -1.1900   22.4510 C   0  0  0  0  0  0  0  0  0  0  0  0
    6.6400    0.5006   17.3183 N   0  0  0  0  0  0  0  0  0  0  0  0
    7.2820   -0.7860   20.6970 N   0  0  0  0  0  0  0  0  0  0  0  0
    8.9170    0.7530   21.0260 O   0  0  0  0  0  0  0  0  0  0  0  0
    4.6477   -0.0457   20.9347 O   0  0  0  0  0  0  0  0  0  0  0  0
   13.8840   -1.8490   21.2740 Cl  0  0  0  0  0  0  0  0  0  0  0  0
   12.2249    1.2198   24.6546 H   0  0  0  0  0  0  0  0  0  0  0  0
    9.8763    0.5350   24.3454 H   0  0  0  0  0  0  0  0  0  0  0  0
   14.0077    0.1988   23.2842 H   0  0  0  0  0  0  0  0  0  0  0  0
   11.0892   -2.3009   21.3624 H   0  0  0  0  0  0  0  0  0  0  0  0
    4.9000    1.2930   16.5590 H   0  0  0  0  0  0  0  0  0  0  0  0
    8.2714   -0.3101   18.2706 H   0  0  0  0  0  0  0  0  0  0  0  0
    3.0362    2.1231   18.1975 H   0  0  0  0  0  0  0  0  0  0  0  0
    2.5613    0.4138   18.1716 H   0  0  0  0  0  0  0  0  0  0  0  0
    3.1665    2.1684   20.5930 H   0  0  0  0  0  0  0  0  0  0  0  0
    1.6415    1.3539   20.2054 H   0  0  0  0  0  0  0  0  0  0  0  0
    2.8835    0.1057   21.9538 H   0  0  0  0  0  0  0  0  0  0  0  0
    2.8094   -0.8842   20.4939 H   0  0  0  0  0  0  0  0  0  0  0  0
    8.7774   -2.2383   22.1732 H   0  0  0  0  0  0  0  0  0  0  0  0
    8.2557   -1.0153   23.3257 H   0  0  0  0  0  0  0  0  0  0  0  0
    6.8982   -1.6628   21.0683 H   0  0  0  0  0  0  0  0  0  0  0  0
  1  2  1  0  0  0  0
  1  3  2  0  0  0  0
  2  8  2  0  0  0  0
  3 11  1  0  0  0  0
  4  8  1  0  0  0  0
  4 11  2  0  0  0  0
  5  7  2  0  0  0  0
  5 17  1  0  0  0  0
  6  9  1  0  0  0  0
  6 17  2  0  0  0  0
  7 10  1  0  0  0  0
  7 13  1  0  0  0  0
  8 16  1  0  0  0  0
  9 10  2  0  0  0  0
  9 18  1  0  0  0  0
 10 20  1  0  0  0  0
 11 21  1  0  0  0  0
 12 16  1  0  0  0  0
 12 18  1  0  0  0  0
 12 19  2  0  0  0  0
 13 14  1  0  0  0  0
 14 15  1  0  0  0  0
 15 20  1  0  0  0  0
  1 22  1  0  0  0  0
  2 23  1  0  0  0  0
  3 24  1  0  0  0  0
  4 25  1  0  0  0  0
  5 26  1  0  0  0  0
  6 27  1  0  0  0  0
 13 28  1  0  0  0  0
 13 29  1  0  0  0  0
 14 30  1  0  0  0  0
 14 31  1  0  0  0  0
 15 32  1  0  0  0  0
 15 33  1  0  0  0  0
 16 34  1  0  0  0  0
 16 35  1  0  0  0  0
 18 36  1  0  0  0  0
M  END
> <compound>
EDJ-MED-976da9a6-1

> <compound_smiles>
c1cc(cc(c1)Cl)CC(=O)Nc2cncc3c2OCCC3

> <enantiomer_smiles>
c1cc(cc(c1)Cl)CC(=O)Nc2cncc3c2OCCC3

> <scaffold>
chlorobenzene-linker

> <canonical_CID>
EDJ-MED-976da9a6-1

> <r_inhibition_at_20_uM>

> <r_inhibition_at_50_uM>

> <r_avg_IC50>
9.85585385180378

> <f_inhibition_at_20_uM>

> <f_inhibition_at_50_uM>

> <f_avg_IC50>
11.8845465740254

> <f_avg_pIC50>

> <relative_solubility_at_20_uM>

> <relative_solubility_at_100_uM>

> <trypsin_IC50>

> <NMR_std_ratio>

> <acrylamide>
False

> <chloroacetamide>
False

> <series>
3-aminopyridine-like

> <frag_id>

> <clash_score>
0

> <docking_score>
-6.919499397277832

> <overlap_score>
0.8967577219009399

> <MMFF_internal_energy>
70.7251051169642

> <docked_smiles>
c1cc(cc(c1)Cl)CC(=O)Nc2cncc3c2OCCC3

$$$$
