JAN-GHE-5a013bed-1_1
  -OEChem-07022116353D

 31 32  0     0  0  0  0  0  0999 V2000
   11.9780    0.4600   23.9150 C   0  0  0  0  0  0  0  0  0  0  0  0
   10.6560    0.0720   23.7350 C   0  0  0  0  0  0  0  0  0  0  0  0
   12.9840   -0.1200   23.1530 C   0  0  0  0  0  0  0  0  0  0  0  0
   11.3360   -1.5050   22.0650 C   0  0  0  0  0  0  0  0  0  0  0  0
   10.3220   -0.8940   22.7910 C   0  0  0  0  0  0  0  0  0  0  0  0
   12.6400   -1.1000   22.2390 C   0  0  0  0  0  0  0  0  0  0  0  0
    5.2924    1.1481   18.4367 C   0  0  0  0  0  0  0  0  0  0  0  0
    5.6242    0.8008   19.7221 C   0  0  0  0  0  0  0  0  0  0  0  0
    8.3880   -0.3240   21.3070 C   0  0  0  0  0  0  0  0  0  0  0  0
    4.2863    2.1083   17.9626 C   0  0  0  0  0  0  0  0  0  0  0  0
    5.1116    1.2480   21.0291 C   0  0  0  0  0  0  0  0  0  0  0  0
    8.8810   -1.1900   22.4510 C   0  0  0  0  0  0  0  0  0  0  0  0
    6.0663    0.4443   17.5563 N   0  0  0  0  0  0  0  0  0  0  0  0
    6.8767   -0.3384   18.2604 N   0  0  0  0  0  0  0  0  0  0  0  0
    6.6099   -0.1233   19.5587 N   0  0  0  0  0  0  0  0  0  0  0  0
    7.2820   -0.7860   20.6970 N   0  0  0  0  0  0  0  0  0  0  0  0
    8.9170    0.7530   21.0260 O   0  0  0  0  0  0  0  0  0  0  0  0
   13.8840   -1.8490   21.2740 Cl  0  0  0  0  0  0  0  0  0  0  0  0
   12.2249    1.2198   24.6546 H   0  0  0  0  0  0  0  0  0  0  0  0
    9.8763    0.5350   24.3454 H   0  0  0  0  0  0  0  0  0  0  0  0
   14.0077    0.1988   23.2842 H   0  0  0  0  0  0  0  0  0  0  0  0
   11.0892   -2.3009   21.3624 H   0  0  0  0  0  0  0  0  0  0  0  0
    4.7144    3.1208   17.8525 H   0  0  0  0  0  0  0  0  0  0  0  0
    3.8609    1.8222   16.9827 H   0  0  0  0  0  0  0  0  0  0  0  0
    3.4241    2.1881   18.6508 H   0  0  0  0  0  0  0  0  0  0  0  0
    4.2677    0.6209   21.3635 H   0  0  0  0  0  0  0  0  0  0  0  0
    5.8863    1.2105   21.8153 H   0  0  0  0  0  0  0  0  0  0  0  0
    4.7586    2.2943   21.0021 H   0  0  0  0  0  0  0  0  0  0  0  0
    8.2454   -1.0138   23.3201 H   0  0  0  0  0  0  0  0  0  0  0  0
    8.7729   -2.2397   22.1737 H   0  0  0  0  0  0  0  0  0  0  0  0
    6.8794   -1.6525   21.0431 H   0  0  0  0  0  0  0  0  0  0  0  0
  1  2  2  0  0  0  0
  1  3  1  0  0  0  0
  2  5  1  0  0  0  0
  3  6  2  0  0  0  0
  4  5  2  0  0  0  0
  4  6  1  0  0  0  0
  5 12  1  0  0  0  0
  6 18  1  0  0  0  0
  7  8  2  0  0  0  0
  7 10  1  0  0  0  0
  7 13  1  0  0  0  0
  8 11  1  0  0  0  0
  8 15  1  0  0  0  0
  9 12  1  0  0  0  0
  9 16  1  0  0  0  0
  9 17  2  0  0  0  0
 13 14  2  0  0  0  0
 14 15  1  0  0  0  0
 15 16  1  0  0  0  0
  1 19  1  0  0  0  0
  2 20  1  0  0  0  0
  3 21  1  0  0  0  0
  4 22  1  0  0  0  0
 10 23  1  0  0  0  0
 10 24  1  0  0  0  0
 10 25  1  0  0  0  0
 11 26  1  0  0  0  0
 11 27  1  0  0  0  0
 11 28  1  0  0  0  0
 12 29  1  0  0  0  0
 12 30  1  0  0  0  0
 16 31  1  0  0  0  0
M  END
> <compound>
JAN-GHE-5a013bed-1

> <compound_smiles>
Cc1c(n(nn1)NC(=O)Cc2cccc(c2)Cl)C

> <enantiomer_smiles>
Cc1c(n(nn1)NC(=O)Cc2cccc(c2)Cl)C

> <scaffold>
chlorobenzene-linker

> <canonical_CID>
JAN-GHE-5a013bed-1

> <r_inhibition_at_20_uM>

> <r_inhibition_at_50_uM>

> <r_avg_IC50>
73.3563140602343

> <f_inhibition_at_20_uM>

> <f_inhibition_at_50_uM>

> <f_avg_IC50>
14.1625652028387

> <f_avg_pIC50>

> <relative_solubility_at_20_uM>

> <relative_solubility_at_100_uM>

> <trypsin_IC50>

> <NMR_std_ratio>

> <acrylamide>
False

> <chloroacetamide>
False

> <series>
3-aminopyridine-like

> <frag_id>

> <clash_score>
0

> <docking_score>
-7.261910915374756

> <overlap_score>
0.8610333204269409

> <MMFF_internal_energy>
-12.117188058858623

> <docked_smiles>
Cc1c(n(nn1)NC(=O)Cc2cccc(c2)Cl)C

$$$$
