JAN-GHE-83b26c96-22_1
  -OEChem-07022116353D

 37 38  0     0  0  0  0  0  0999 V2000
   11.9780    0.4600   23.9150 C   0  0  0  0  0  0  0  0  0  0  0  0
   10.6560    0.0720   23.7350 C   0  0  0  0  0  0  0  0  0  0  0  0
   12.9840   -0.1200   23.1530 C   0  0  0  0  0  0  0  0  0  0  0  0
    4.9142    1.2580   18.6936 C   0  0  0  0  0  0  0  0  0  0  0  0
   11.3360   -1.5050   22.0650 C   0  0  0  0  0  0  0  0  0  0  0  0
    5.3173    0.8445   17.4341 C   0  0  0  0  0  0  0  0  0  0  0  0
    6.9161   -0.5553   18.3072 C   0  0  0  0  0  0  0  0  0  0  0  0
   10.3220   -0.8940   22.7910 C   0  0  0  0  0  0  0  0  0  0  0  0
    5.5669    0.7174   19.7959 C   0  0  0  0  0  0  0  0  0  0  0  0
    6.5881   -0.2073   19.6076 C   0  0  0  0  0  0  0  0  0  0  0  0
   12.6400   -1.1000   22.2390 C   0  0  0  0  0  0  0  0  0  0  0  0
    8.3880   -0.3240   21.3070 C   0  0  0  0  0  0  0  0  0  0  0  0
    5.1531    1.1459   21.1655 C   0  0  0  0  0  0  0  0  0  0  0  0
    8.7851   -2.6925   22.0505 C   0  0  0  0  0  0  0  0  0  0  0  0
    7.8868   -1.0071   23.6371 C   0  0  0  0  0  0  0  0  0  0  0  0
    8.8810   -1.1900   22.4510 C   0  0  0  0  0  0  0  0  0  0  0  0
    6.3049   -0.0515   17.2117 N   0  0  0  0  0  0  0  0  0  0  0  0
    7.2820   -0.7860   20.6970 N   0  0  0  0  0  0  0  0  0  0  0  0
    8.9170    0.7530   21.0260 O   0  0  0  0  0  0  0  0  0  0  0  0
   13.8840   -1.8490   21.2740 Cl  0  0  0  0  0  0  0  0  0  0  0  0
   12.2249    1.2198   24.6546 H   0  0  0  0  0  0  0  0  0  0  0  0
    9.8763    0.5350   24.3454 H   0  0  0  0  0  0  0  0  0  0  0  0
   14.0077    0.1988   23.2842 H   0  0  0  0  0  0  0  0  0  0  0  0
    4.1139    1.9815   18.8062 H   0  0  0  0  0  0  0  0  0  0  0  0
   11.0892   -2.3009   21.3624 H   0  0  0  0  0  0  0  0  0  0  0  0
    4.8402    1.2364   16.5418 H   0  0  0  0  0  0  0  0  0  0  0  0
    7.7041   -1.2721   18.0957 H   0  0  0  0  0  0  0  0  0  0  0  0
    4.3610    0.4903   21.5454 H   0  0  0  0  0  0  0  0  0  0  0  0
    5.9988    1.1132   21.8634 H   0  0  0  0  0  0  0  0  0  0  0  0
    4.7813    2.1781   21.1623 H   0  0  0  0  0  0  0  0  0  0  0  0
    7.7562   -2.9760   21.7988 H   0  0  0  0  0  0  0  0  0  0  0  0
    9.1239   -3.3622   22.8498 H   0  0  0  0  0  0  0  0  0  0  0  0
    9.4121   -2.8991   21.1748 H   0  0  0  0  0  0  0  0  0  0  0  0
    6.8529   -1.2397   23.3585 H   0  0  0  0  0  0  0  0  0  0  0  0
    7.9045    0.0237   24.0100 H   0  0  0  0  0  0  0  0  0  0  0  0
    8.1455   -1.6627   24.4776 H   0  0  0  0  0  0  0  0  0  0  0  0
    6.8755   -1.6471   21.0548 H   0  0  0  0  0  0  0  0  0  0  0  0
  1  2  2  0  0  0  0
  1  3  1  0  0  0  0
  2  8  1  0  0  0  0
  3 11  2  0  0  0  0
  4  6  2  0  0  0  0
  4  9  1  0  0  0  0
  5  8  2  0  0  0  0
  5 11  1  0  0  0  0
  6 17  1  0  0  0  0
  7 10  1  0  0  0  0
  7 17  2  0  0  0  0
  8 16  1  0  0  0  0
  9 10  2  0  0  0  0
  9 13  1  0  0  0  0
 10 18  1  0  0  0  0
 11 20  1  0  0  0  0
 12 16  1  0  0  0  0
 12 18  1  0  0  0  0
 12 19  2  0  0  0  0
 14 16  1  0  0  0  0
 15 16  1  0  0  0  0
  1 21  1  0  0  0  0
  2 22  1  0  0  0  0
  3 23  1  0  0  0  0
  4 24  1  0  0  0  0
  5 25  1  0  0  0  0
  6 26  1  0  0  0  0
  7 27  1  0  0  0  0
 13 28  1  0  0  0  0
 13 29  1  0  0  0  0
 13 30  1  0  0  0  0
 14 31  1  0  0  0  0
 14 32  1  0  0  0  0
 14 33  1  0  0  0  0
 15 34  1  0  0  0  0
 15 35  1  0  0  0  0
 15 36  1  0  0  0  0
 18 37  1  0  0  0  0
M  END
> <compound>
JAN-GHE-83b26c96-22

> <compound_smiles>
Cc1ccncc1NC(=O)C(C)(C)c2cccc(c2)Cl

> <enantiomer_smiles>
Cc1ccncc1NC(=O)C(C)(C)c2cccc(c2)Cl

> <scaffold>
chlorobenzene-linker

> <canonical_CID>
JAN-GHE-83b26c96-22

> <r_inhibition_at_20_uM>

> <r_inhibition_at_50_uM>

> <r_avg_IC50>
24.522808858117

> <f_inhibition_at_20_uM>

> <f_inhibition_at_50_uM>

> <f_avg_IC50>
96.9383202483582

> <f_avg_pIC50>

> <relative_solubility_at_20_uM>

> <relative_solubility_at_100_uM>

> <trypsin_IC50>
99.0

> <NMR_std_ratio>

> <acrylamide>
False

> <chloroacetamide>
False

> <series>
3-aminopyridine-like

> <frag_id>
x10422

> <clash_score>
0

> <docking_score>
-10.275872230529785

> <overlap_score>
0.8779082894325256

> <MMFF_internal_energy>
102.1914788911243

> <docked_smiles>
Cc1ccncc1NC(=O)C(C)(C)c2cccc(c2)Cl

$$$$
