JIN-POS-6dc588a4-10_1
  -OEChem-07022116353D

 32 34  0     0  0  0  0  0  0999 V2000
   11.9780    0.4600   23.9150 C   0  0  0  0  0  0  0  0  0  0  0  0
   10.6560    0.0720   23.7350 C   0  0  0  0  0  0  0  0  0  0  0  0
   12.9840   -0.1200   23.1530 C   0  0  0  0  0  0  0  0  0  0  0  0
   11.3360   -1.5050   22.0650 C   0  0  0  0  0  0  0  0  0  0  0  0
    2.6827    0.9234   19.8469 C   0  0  0  0  0  0  0  0  0  0  0  0
    3.3065    0.3758   20.9375 C   0  0  0  0  0  0  0  0  0  0  0  0
    5.3648    0.8576   17.4641 C   0  0  0  0  0  0  0  0  0  0  0  0
    7.2429   -0.0358   18.4150 C   0  0  0  0  0  0  0  0  0  0  0  0
   10.3220   -0.8940   22.7910 C   0  0  0  0  0  0  0  0  0  0  0  0
    4.6175    0.7162   18.6223 C   0  0  0  0  0  0  0  0  0  0  0  0
    5.2589    0.1557   19.7365 C   0  0  0  0  0  0  0  0  0  0  0  0
    6.5902   -0.2227   19.6221 C   0  0  0  0  0  0  0  0  0  0  0  0
   12.6400   -1.1000   22.2390 C   0  0  0  0  0  0  0  0  0  0  0  0
    8.3880   -0.3240   21.3070 C   0  0  0  0  0  0  0  0  0  0  0  0
    8.8810   -1.1900   22.4510 C   0  0  0  0  0  0  0  0  0  0  0  0
    6.6601    0.4983   17.3263 N   0  0  0  0  0  0  0  0  0  0  0  0
    3.3287    1.0994   18.6803 N   0  0  0  0  0  0  0  0  0  0  0  0
    4.5947   -0.0120   20.8939 N   0  0  0  0  0  0  0  0  0  0  0  0
    7.2820   -0.7860   20.6970 N   0  0  0  0  0  0  0  0  0  0  0  0
    8.9170    0.7530   21.0260 O   0  0  0  0  0  0  0  0  0  0  0  0
   13.8840   -1.8490   21.2740 Cl  0  0  0  0  0  0  0  0  0  0  0  0
   12.2249    1.2198   24.6546 H   0  0  0  0  0  0  0  0  0  0  0  0
    9.8763    0.5350   24.3454 H   0  0  0  0  0  0  0  0  0  0  0  0
   14.0077    0.1988   23.2842 H   0  0  0  0  0  0  0  0  0  0  0  0
   11.0892   -2.3008   21.3624 H   0  0  0  0  0  0  0  0  0  0  0  0
    1.6470    1.2378   19.8727 H   0  0  0  0  0  0  0  0  0  0  0  0
    2.7942    0.2297   21.8801 H   0  0  0  0  0  0  0  0  0  0  0  0
    4.9222    1.2851   16.5684 H   0  0  0  0  0  0  0  0  0  0  0  0
    8.2831   -0.3178   18.2834 H   0  0  0  0  0  0  0  0  0  0  0  0
    8.7774   -2.2383   22.1732 H   0  0  0  0  0  0  0  0  0  0  0  0
    8.2557   -1.0153   23.3257 H   0  0  0  0  0  0  0  0  0  0  0  0
    6.8982   -1.6622   21.0677 H   0  0  0  0  0  0  0  0  0  0  0  0
  1  2  1  0  0  0  0
  1  3  2  0  0  0  0
  2  9  2  0  0  0  0
  3 13  1  0  0  0  0
  4  9  1  0  0  0  0
  4 13  2  0  0  0  0
  5  6  1  0  0  0  0
  5 17  2  0  0  0  0
  6 18  2  0  0  0  0
  7 10  2  0  0  0  0
  7 16  1  0  0  0  0
  8 12  1  0  0  0  0
  8 16  2  0  0  0  0
  9 15  1  0  0  0  0
 10 11  1  0  0  0  0
 10 17  1  0  0  0  0
 11 12  2  0  0  0  0
 11 18  1  0  0  0  0
 12 19  1  0  0  0  0
 13 21  1  0  0  0  0
 14 15  1  0  0  0  0
 14 19  1  0  0  0  0
 14 20  2  0  0  0  0
  1 22  1  0  0  0  0
  2 23  1  0  0  0  0
  3 24  1  0  0  0  0
  4 25  1  0  0  0  0
  5 26  1  0  0  0  0
  6 27  1  0  0  0  0
  7 28  1  0  0  0  0
  8 29  1  0  0  0  0
 15 30  1  0  0  0  0
 15 31  1  0  0  0  0
 19 32  1  0  0  0  0
M  END
> <compound>
JIN-POS-6dc588a4-10

> <compound_smiles>
c1cc(cc(c1)Cl)CC(=O)Nc2cncc3c2nccn3

> <enantiomer_smiles>
c1cc(cc(c1)Cl)CC(=O)Nc2cncc3c2nccn3

> <scaffold>
chlorobenzene-linker

> <canonical_CID>
JIN-POS-6dc588a4-10

> <r_inhibition_at_20_uM>

> <r_inhibition_at_50_uM>

> <r_avg_IC50>

> <f_inhibition_at_20_uM>

> <f_inhibition_at_50_uM>

> <f_avg_IC50>
76.0415338327822

> <f_avg_pIC50>

> <relative_solubility_at_20_uM>

> <relative_solubility_at_100_uM>

> <trypsin_IC50>

> <NMR_std_ratio>

> <acrylamide>
False

> <chloroacetamide>
False

> <series>
3-aminopyridine-like

> <frag_id>

> <clash_score>
0.6122513598124126

> <docking_score>
-6.075019836425781

> <overlap_score>
0.8987694382667542

> <MMFF_internal_energy>
146.96348094831745

> <docked_smiles>
c1cc(cc(c1)Cl)CC(=O)Nc2cncc3c2nccn3

$$$$
