MAT-POS-fce787c2-1_1
  -OEChem-07022116353D

 41 43  0     0  0  0  0  0  0999 V2000
    3.4430    2.5368   20.0698 C   0  0  0  0  0  0  0  0  0  0  0  0
    4.0769    2.0258   21.2000 C   0  0  0  0  0  0  0  0  0  0  0  0
   11.9780    0.4600   23.9150 C   0  0  0  0  0  0  0  0  0  0  0  0
    3.8513    2.1346   18.7983 C   0  0  0  0  0  0  0  0  0  0  0  0
    5.1219    1.1103   21.0638 C   0  0  0  0  0  0  0  0  0  0  0  0
   10.6560    0.0720   23.7350 C   0  0  0  0  0  0  0  0  0  0  0  0
   12.9840   -0.1200   23.1530 C   0  0  0  0  0  0  0  0  0  0  0  0
    5.3505    0.7771   17.4015 C   0  0  0  0  0  0  0  0  0  0  0  0
    6.9502   -0.5829   18.3321 C   0  0  0  0  0  0  0  0  0  0  0  0
    4.9016    1.2138   18.6494 C   0  0  0  0  0  0  0  0  0  0  0  0
    5.5459    0.6942   19.7912 C   0  0  0  0  0  0  0  0  0  0  0  0
   10.3220   -0.8940   22.7910 C   0  0  0  0  0  0  0  0  0  0  0  0
    6.5902   -0.2221   19.6216 C   0  0  0  0  0  0  0  0  0  0  0  0
   11.3360   -1.5050   22.0650 C   0  0  0  0  0  0  0  0  0  0  0  0
   12.6400   -1.1000   22.2390 C   0  0  0  0  0  0  0  0  0  0  0  0
    8.3880   -0.3240   21.3070 C   0  0  0  0  0  0  0  0  0  0  0  0
    9.7593   -3.1076   19.2450 C   0  0  0  0  0  0  0  0  0  0  0  0
    8.8810   -1.1900   22.4510 C   0  0  0  0  0  0  0  0  0  0  0  0
   10.7305   -2.1144   19.8466 C   0  0  0  0  0  0  0  0  0  0  0  0
    6.3571   -0.1067   17.2168 N   0  0  0  0  0  0  0  0  0  0  0  0
    7.2820   -0.7860   20.6970 N   0  0  0  0  0  0  0  0  0  0  0  0
    8.9170    0.7530   21.0260 O   0  0  0  0  0  0  0  0  0  0  0  0
   11.0227   -2.5039   21.1861 O   0  0  0  0  0  0  0  0  0  0  0  0
   13.8840   -1.8490   21.2740 Cl  0  0  0  0  0  0  0  0  0  0  0  0
    2.6302    3.2488   20.1787 H   0  0  0  0  0  0  0  0  0  0  0  0
    3.7572    2.3402   22.1894 H   0  0  0  0  0  0  0  0  0  0  0  0
   12.2258    1.2199   24.6540 H   0  0  0  0  0  0  0  0  0  0  0  0
    3.3454    2.5434   17.9266 H   0  0  0  0  0  0  0  0  0  0  0  0
    5.5921    0.7346   21.9697 H   0  0  0  0  0  0  0  0  0  0  0  0
    9.8767    0.5347   24.3460 H   0  0  0  0  0  0  0  0  0  0  0  0
   14.0072    0.1991   23.2856 H   0  0  0  0  0  0  0  0  0  0  0  0
    4.8980    1.1375   16.4818 H   0  0  0  0  0  0  0  0  0  0  0  0
    7.7536   -1.2906   18.1476 H   0  0  0  0  0  0  0  0  0  0  0  0
   10.1887   -4.1132   19.2302 H   0  0  0  0  0  0  0  0  0  0  0  0
    8.8261   -3.1301   19.8172 H   0  0  0  0  0  0  0  0  0  0  0  0
    9.4980   -2.8200   18.2212 H   0  0  0  0  0  0  0  0  0  0  0  0
    8.7775   -2.2383   22.1732 H   0  0  0  0  0  0  0  0  0  0  0  0
    8.2557   -1.0153   23.3257 H   0  0  0  0  0  0  0  0  0  0  0  0
   10.2950   -1.1108   19.8585 H   0  0  0  0  0  0  0  0  0  0  0  0
   11.6627   -2.0938   19.2742 H   0  0  0  0  0  0  0  0  0  0  0  0
    6.8981   -1.6619   21.0675 H   0  0  0  0  0  0  0  0  0  0  0  0
  1  2  1  0  0  0  0
  1  4  2  0  0  0  0
  2  5  2  0  0  0  0
  3  6  1  0  0  0  0
  3  7  2  0  0  0  0
  4 10  1  0  0  0  0
  5 11  1  0  0  0  0
  6 12  2  0  0  0  0
  7 15  1  0  0  0  0
  8 10  2  0  0  0  0
  8 20  1  0  0  0  0
  9 13  1  0  0  0  0
  9 20  2  0  0  0  0
 10 11  1  0  0  0  0
 11 13  2  0  0  0  0
 12 14  1  0  0  0  0
 12 18  1  0  0  0  0
 13 21  1  0  0  0  0
 14 15  2  0  0  0  0
 14 23  1  0  0  0  0
 15 24  1  0  0  0  0
 16 18  1  0  0  0  0
 16 21  1  0  0  0  0
 16 22  2  0  0  0  0
 17 19  1  0  0  0  0
 19 23  1  0  0  0  0
  1 25  1  0  0  0  0
  2 26  1  0  0  0  0
  3 27  1  0  0  0  0
  4 28  1  0  0  0  0
  5 29  1  0  0  0  0
  6 30  1  0  0  0  0
  7 31  1  0  0  0  0
  8 32  1  0  0  0  0
  9 33  1  0  0  0  0
 17 34  1  0  0  0  0
 17 35  1  0  0  0  0
 17 36  1  0  0  0  0
 18 37  1  0  0  0  0
 18 38  1  0  0  0  0
 19 39  1  0  0  0  0
 19 40  1  0  0  0  0
 21 41  1  0  0  0  0
M  END
> <compound>
MAT-POS-fce787c2-1

> <compound_smiles>
CCOc1c(cccc1Cl)CC(=O)Nc2cncc3c2cccc3

> <enantiomer_smiles>
CCOc1c(cccc1Cl)CC(=O)Nc2cncc3c2cccc3

> <scaffold>
chlorobenzene-linker

> <canonical_CID>
MAT-POS-fce787c2-1

> <r_inhibition_at_20_uM>

> <r_inhibition_at_50_uM>

> <r_avg_IC50>

> <f_inhibition_at_20_uM>

> <f_inhibition_at_50_uM>

> <f_avg_IC50>
6.95899371078913

> <f_avg_pIC50>

> <relative_solubility_at_20_uM>

> <relative_solubility_at_100_uM>

> <trypsin_IC50>

> <NMR_std_ratio>

> <acrylamide>
False

> <chloroacetamide>
False

> <series>
3-aminopyridine-like

> <frag_id>

> <clash_score>
2.2502681689609663

> <docking_score>
-9.08981990814209

> <overlap_score>
0.9949464797973633

> <MMFF_internal_energy>
116.99662504161958

> <docked_smiles>
CCOc1c(cccc1Cl)CC(=O)Nc2cncc3c2cccc3

$$$$
