MAT-POS-199e2e7c-1_1
  -OEChem-07022116353D

 35 37  0     0  0  0  0  0  0999 V2000
   11.9780    0.4600   23.9150 C   0  0  0  0  0  0  0  0  0  0  0  0
   10.6560    0.0720   23.7350 C   0  0  0  0  0  0  0  0  0  0  0  0
   12.9840   -0.1200   23.1530 C   0  0  0  0  0  0  0  0  0  0  0  0
   11.3360   -1.5050   22.0650 C   0  0  0  0  0  0  0  0  0  0  0  0
    5.3030    0.9024   17.4539 C   0  0  0  0  0  0  0  0  0  0  0  0
    7.2020   -0.0234   18.3979 C   0  0  0  0  0  0  0  0  0  0  0  0
    4.6123    0.7266   18.6297 C   0  0  0  0  0  0  0  0  0  0  0  0
    5.2681    0.1564   19.7199 C   0  0  0  0  0  0  0  0  0  0  0  0
   10.3220   -0.8940   22.7910 C   0  0  0  0  0  0  0  0  0  0  0  0
    6.5901   -0.2279   19.6263 C   0  0  0  0  0  0  0  0  0  0  0  0
   12.6400   -1.1000   22.2390 C   0  0  0  0  0  0  0  0  0  0  0  0
    8.3880   -0.3240   21.3070 C   0  0  0  0  0  0  0  0  0  0  0  0
    3.2127    1.1080   18.9750 C   0  0  0  0  0  0  0  0  0  0  0  0
    4.3654    0.0989   20.9106 C   0  0  0  0  0  0  0  0  0  0  0  0
    2.9892    0.2767   20.2485 C   0  0  0  0  0  0  0  0  0  0  0  0
    8.8810   -1.1900   22.4510 C   0  0  0  0  0  0  0  0  0  0  0  0
    6.5956    0.5292   17.3122 N   0  0  0  0  0  0  0  0  0  0  0  0
    7.2820   -0.7860   20.6970 N   0  0  0  0  0  0  0  0  0  0  0  0
    8.9170    0.7530   21.0260 O   0  0  0  0  0  0  0  0  0  0  0  0
   13.8840   -1.8490   21.2740 Cl  0  0  0  0  0  0  0  0  0  0  0  0
   12.2249    1.2198   24.6546 H   0  0  0  0  0  0  0  0  0  0  0  0
    9.8763    0.5350   24.3454 H   0  0  0  0  0  0  0  0  0  0  0  0
   14.0077    0.1988   23.2842 H   0  0  0  0  0  0  0  0  0  0  0  0
   11.0892   -2.3009   21.3624 H   0  0  0  0  0  0  0  0  0  0  0  0
    4.8451    1.3514   16.5804 H   0  0  0  0  0  0  0  0  0  0  0  0
    8.2400   -0.3007   18.2360 H   0  0  0  0  0  0  0  0  0  0  0  0
    3.1537    2.1802   19.1876 H   0  0  0  0  0  0  0  0  0  0  0  0
    2.4979    0.8398   18.1922 H   0  0  0  0  0  0  0  0  0  0  0  0
    4.4261   -0.8537   21.4444 H   0  0  0  0  0  0  0  0  0  0  0  0
    4.5844    0.9274   21.5921 H   0  0  0  0  0  0  0  0  0  0  0  0
    2.2572    0.7328   20.9223 H   0  0  0  0  0  0  0  0  0  0  0  0
    2.5972   -0.7112   19.9681 H   0  0  0  0  0  0  0  0  0  0  0  0
    8.7774   -2.2383   22.1732 H   0  0  0  0  0  0  0  0  0  0  0  0
    8.2557   -1.0153   23.3257 H   0  0  0  0  0  0  0  0  0  0  0  0
    6.8984   -1.6642   21.0696 H   0  0  0  0  0  0  0  0  0  0  0  0
  1  2  1  0  0  0  0
  1  3  2  0  0  0  0
  2  9  2  0  0  0  0
  3 11  1  0  0  0  0
  4  9  1  0  0  0  0
  4 11  2  0  0  0  0
  5  7  2  0  0  0  0
  5 17  1  0  0  0  0
  6 10  1  0  0  0  0
  6 17  2  0  0  0  0
  7  8  1  0  0  0  0
  7 13  1  0  0  0  0
  8 10  2  0  0  0  0
  8 14  1  0  0  0  0
  9 16  1  0  0  0  0
 10 18  1  0  0  0  0
 11 20  1  0  0  0  0
 12 16  1  0  0  0  0
 12 18  1  0  0  0  0
 12 19  2  0  0  0  0
 13 15  1  0  0  0  0
 14 15  1  0  0  0  0
  1 21  1  0  0  0  0
  2 22  1  0  0  0  0
  3 23  1  0  0  0  0
  4 24  1  0  0  0  0
  5 25  1  0  0  0  0
  6 26  1  0  0  0  0
 13 27  1  0  0  0  0
 13 28  1  0  0  0  0
 14 29  1  0  0  0  0
 14 30  1  0  0  0  0
 15 31  1  0  0  0  0
 15 32  1  0  0  0  0
 16 33  1  0  0  0  0
 16 34  1  0  0  0  0
 18 35  1  0  0  0  0
M  END
> <compound>
MAT-POS-199e2e7c-1

> <compound_smiles>
c1cc(cc(c1)Cl)CC(=O)Nc2cncc3c2CCC3

> <enantiomer_smiles>
c1cc(cc(c1)Cl)CC(=O)Nc2cncc3c2CCC3

> <scaffold>
chlorobenzene-linker

> <canonical_CID>
MAT-POS-199e2e7c-1

> <r_inhibition_at_20_uM>

> <r_inhibition_at_50_uM>

> <r_avg_IC50>
4.64891486609542

> <f_inhibition_at_20_uM>

> <f_inhibition_at_50_uM>

> <f_avg_IC50>
5.16341400207183

> <f_avg_pIC50>

> <relative_solubility_at_20_uM>

> <relative_solubility_at_100_uM>

> <trypsin_IC50>

> <NMR_std_ratio>

> <acrylamide>
False

> <chloroacetamide>
False

> <series>
3-aminopyridine-like

> <frag_id>
x12000

> <clash_score>
0.6945572432036232

> <docking_score>
-7.11557149887085

> <overlap_score>
0.8743317127227783

> <MMFF_internal_energy>
76.23977051667218

> <docked_smiles>
c1cc(cc(c1)Cl)CC(=O)Nc2cncc3c2CCC3

$$$$
