MAT-POS-bb423b95-7_1
  -OEChem-07022116353D

 37 39  0     0  0  0  0  0  0999 V2000
    4.8097    3.6913   20.5777 C   0  0  0  0  0  0  0  0  0  0  0  0
    5.5026    3.0196   21.5821 C   0  0  0  0  0  0  0  0  0  0  0  0
   11.9780    0.4600   23.9150 C   0  0  0  0  0  0  0  0  0  0  0  0
    4.7015    3.1272   19.3067 C   0  0  0  0  0  0  0  0  0  0  0  0
    6.0906    1.7809   21.3202 C   0  0  0  0  0  0  0  0  0  0  0  0
   10.6560    0.0720   23.7350 C   0  0  0  0  0  0  0  0  0  0  0  0
   12.9840   -0.1200   23.1530 C   0  0  0  0  0  0  0  0  0  0  0  0
   11.3360   -1.5050   22.0650 C   0  0  0  0  0  0  0  0  0  0  0  0
    5.2119    1.2709   17.7785 C   0  0  0  0  0  0  0  0  0  0  0  0
    6.4277   -0.5506   18.4702 C   0  0  0  0  0  0  0  0  0  0  0  0
    5.2891    1.8812   19.0320 C   0  0  0  0  0  0  0  0  0  0  0  0
    5.9915    1.1981   20.0462 C   0  0  0  0  0  0  0  0  0  0  0  0
   10.3220   -0.8940   22.7910 C   0  0  0  0  0  0  0  0  0  0  0  0
    6.5697   -0.0422   19.7523 C   0  0  0  0  0  0  0  0  0  0  0  0
   12.6400   -1.1000   22.2390 C   0  0  0  0  0  0  0  0  0  0  0  0
    8.3880   -0.3240   21.3070 C   0  0  0  0  0  0  0  0  0  0  0  0
    6.7276   -2.1082   21.1209 C   0  0  0  0  0  0  0  0  0  0  0  0
    8.8810   -1.1900   22.4510 C   0  0  0  0  0  0  0  0  0  0  0  0
    5.7633    0.0743   17.4749 N   0  0  0  0  0  0  0  0  0  0  0  0
    7.2820   -0.7860   20.6970 N   0  0  0  0  0  0  0  0  0  0  0  0
    8.9170    0.7530   21.0260 O   0  0  0  0  0  0  0  0  0  0  0  0
   13.8840   -1.8490   21.2740 Cl  0  0  0  0  0  0  0  0  0  0  0  0
    4.3531    4.6547   20.7843 H   0  0  0  0  0  0  0  0  0  0  0  0
    5.5855    3.4606   22.5714 H   0  0  0  0  0  0  0  0  0  0  0  0
   12.2249    1.2198   24.6546 H   0  0  0  0  0  0  0  0  0  0  0  0
    4.1569    3.6651   18.5341 H   0  0  0  0  0  0  0  0  0  0  0  0
    6.6237    1.2879   22.1299 H   0  0  0  0  0  0  0  0  0  0  0  0
    9.8763    0.5350   24.3454 H   0  0  0  0  0  0  0  0  0  0  0  0
   14.0077    0.1988   23.2842 H   0  0  0  0  0  0  0  0  0  0  0  0
   11.0892   -2.3009   21.3624 H   0  0  0  0  0  0  0  0  0  0  0  0
    4.6857    1.7428   16.9532 H   0  0  0  0  0  0  0  0  0  0  0  0
    6.8572   -1.5090   18.1924 H   0  0  0  0  0  0  0  0  0  0  0  0
    7.1174   -2.8981   20.4621 H   0  0  0  0  0  0  0  0  0  0  0  0
    7.0271   -2.3155   22.1588 H   0  0  0  0  0  0  0  0  0  0  0  0
    5.6299   -2.0838   21.0540 H   0  0  0  0  0  0  0  0  0  0  0  0
    8.8006   -2.2403   22.1717 H   0  0  0  0  0  0  0  0  0  0  0  0
    8.2668   -1.0117   23.3332 H   0  0  0  0  0  0  0  0  0  0  0  0
  1  2  1  0  0  0  0
  1  4  2  0  0  0  0
  2  5  2  0  0  0  0
  3  6  2  0  0  0  0
  3  7  1  0  0  0  0
  4 11  1  0  0  0  0
  5 12  1  0  0  0  0
  6 13  1  0  0  0  0
  7 15  2  0  0  0  0
  8 13  2  0  0  0  0
  8 15  1  0  0  0  0
  9 11  2  0  0  0  0
  9 19  1  0  0  0  0
 10 14  1  0  0  0  0
 10 19  2  0  0  0  0
 11 12  1  0  0  0  0
 12 14  2  0  0  0  0
 13 18  1  0  0  0  0
 14 20  1  0  0  0  0
 15 22  1  0  0  0  0
 16 18  1  0  0  0  0
 16 20  1  0  0  0  0
 16 21  2  0  0  0  0
 17 20  1  0  0  0  0
  1 23  1  0  0  0  0
  2 24  1  0  0  0  0
  3 25  1  0  0  0  0
  4 26  1  0  0  0  0
  5 27  1  0  0  0  0
  6 28  1  0  0  0  0
  7 29  1  0  0  0  0
  8 30  1  0  0  0  0
  9 31  1  0  0  0  0
 10 32  1  0  0  0  0
 17 33  1  0  0  0  0
 17 34  1  0  0  0  0
 17 35  1  0  0  0  0
 18 36  1  0  0  0  0
 18 37  1  0  0  0  0
M  END
> <compound>
MAT-POS-bb423b95-7

> <compound_smiles>
CN(c1cncc2c1cccc2)C(=O)Cc3cccc(c3)Cl

> <enantiomer_smiles>
CN(c1cncc2c1cccc2)C(=O)Cc3cccc(c3)Cl

> <scaffold>
chlorobenzene-linker

> <canonical_CID>
MAT-POS-bb423b95-7

> <r_inhibition_at_20_uM>

> <r_inhibition_at_50_uM>

> <r_avg_IC50>
48.193545284778

> <f_inhibition_at_20_uM>

> <f_inhibition_at_50_uM>

> <f_avg_IC50>
34.3682484253434

> <f_avg_pIC50>

> <relative_solubility_at_20_uM>

> <relative_solubility_at_100_uM>

> <trypsin_IC50>

> <NMR_std_ratio>

> <acrylamide>
False

> <chloroacetamide>
False

> <series>
3-aminopyridine-like

> <frag_id>
x11501

> <clash_score>
0

> <docking_score>
-6.359652519226074

> <overlap_score>
0.8641744256019592

> <MMFF_internal_energy>
116.8213298680278

> <docked_smiles>
CN(c1cncc2c1cccc2)C(=O)Cc3cccc(c3)Cl

$$$$
