MAT-POS-f7918075-8_1
  -OEChem-07022116353D

 31 33  0     0  0  0  0  0  0999 V2000
   11.9780    0.4600   23.9150 C   0  0  0  0  0  0  0  0  0  0  0  0
   10.6560    0.0720   23.7350 C   0  0  0  0  0  0  0  0  0  0  0  0
   12.9840   -0.1200   23.1530 C   0  0  0  0  0  0  0  0  0  0  0  0
   11.3360   -1.5050   22.0650 C   0  0  0  0  0  0  0  0  0  0  0  0
    5.2930    0.8886   17.3914 C   0  0  0  0  0  0  0  0  0  0  0  0
    7.1953   -0.0206   18.3929 C   0  0  0  0  0  0  0  0  0  0  0  0
    3.2438    0.5875   20.3107 C   0  0  0  0  0  0  0  0  0  0  0  0
   10.3220   -0.8940   22.7910 C   0  0  0  0  0  0  0  0  0  0  0  0
    5.2489    0.1584   19.7140 C   0  0  0  0  0  0  0  0  0  0  0  0
    4.6311    0.7080   18.5949 C   0  0  0  0  0  0  0  0  0  0  0  0
    6.5901   -0.2286   19.6268 C   0  0  0  0  0  0  0  0  0  0  0  0
   12.6400   -1.1000   22.2390 C   0  0  0  0  0  0  0  0  0  0  0  0
    8.3880   -0.3240   21.3070 C   0  0  0  0  0  0  0  0  0  0  0  0
    8.8810   -1.1900   22.4510 C   0  0  0  0  0  0  0  0  0  0  0  0
    6.5922    0.5150   17.3030 N   0  0  0  0  0  0  0  0  0  0  0  0
    4.3707    0.0912   20.7710 N   0  0  0  0  0  0  0  0  0  0  0  0
    3.3509    0.9734   19.0031 N   0  0  0  0  0  0  0  0  0  0  0  0
    7.2820   -0.7860   20.6970 N   0  0  0  0  0  0  0  0  0  0  0  0
    8.9170    0.7530   21.0260 O   0  0  0  0  0  0  0  0  0  0  0  0
   13.8840   -1.8490   21.2740 Cl  0  0  0  0  0  0  0  0  0  0  0  0
   12.2249    1.2198   24.6546 H   0  0  0  0  0  0  0  0  0  0  0  0
    9.8763    0.5350   24.3454 H   0  0  0  0  0  0  0  0  0  0  0  0
   14.0077    0.1988   23.2842 H   0  0  0  0  0  0  0  0  0  0  0  0
   11.0892   -2.3009   21.3624 H   0  0  0  0  0  0  0  0  0  0  0  0
    4.8336    1.3133   16.5093 H   0  0  0  0  0  0  0  0  0  0  0  0
    8.2359   -0.2925   18.2346 H   0  0  0  0  0  0  0  0  0  0  0  0
    2.3228    0.6946   20.8659 H   0  0  0  0  0  0  0  0  0  0  0  0
    8.7774   -2.2383   22.1732 H   0  0  0  0  0  0  0  0  0  0  0  0
    8.2557   -1.0153   23.3257 H   0  0  0  0  0  0  0  0  0  0  0  0
    2.6168    1.3818   18.4400 H   0  0  0  0  0  0  0  0  0  0  0  0
    6.8984   -1.6645   21.0698 H   0  0  0  0  0  0  0  0  0  0  0  0
  1  2  1  0  0  0  0
  1  3  2  0  0  0  0
  2  8  2  0  0  0  0
  3 12  1  0  0  0  0
  4  8  1  0  0  0  0
  4 12  2  0  0  0  0
  5 10  2  0  0  0  0
  5 15  1  0  0  0  0
  6 11  1  0  0  0  0
  6 15  2  0  0  0  0
  7 16  2  0  0  0  0
  7 17  1  0  0  0  0
  8 14  1  0  0  0  0
  9 10  1  0  0  0  0
  9 11  2  0  0  0  0
  9 16  1  0  0  0  0
 10 17  1  0  0  0  0
 11 18  1  0  0  0  0
 12 20  1  0  0  0  0
 13 14  1  0  0  0  0
 13 18  1  0  0  0  0
 13 19  2  0  0  0  0
  1 21  1  0  0  0  0
  2 22  1  0  0  0  0
  3 23  1  0  0  0  0
  4 24  1  0  0  0  0
  5 25  1  0  0  0  0
  6 26  1  0  0  0  0
  7 27  1  0  0  0  0
 14 28  1  0  0  0  0
 14 29  1  0  0  0  0
 17 30  1  0  0  0  0
 18 31  1  0  0  0  0
M  END
> <compound>
MAT-POS-f7918075-8

> <compound_smiles>
c1cc(cc(c1)Cl)CC(=O)Nc2cncc3c2[nH]cn3

> <enantiomer_smiles>
c1cc(cc(c1)Cl)CC(=O)Nc2cncc3c2[nH]cn3

> <scaffold>
chlorobenzene-linker

> <canonical_CID>
MAT-POS-f7918075-8

> <r_inhibition_at_20_uM>

> <r_inhibition_at_50_uM>

> <r_avg_IC50>
7.96693326437447

> <f_inhibition_at_20_uM>

> <f_inhibition_at_50_uM>

> <f_avg_IC50>
13.260878543169

> <f_avg_pIC50>

> <relative_solubility_at_20_uM>

> <relative_solubility_at_100_uM>

> <trypsin_IC50>

> <NMR_std_ratio>

> <acrylamide>
False

> <chloroacetamide>
False

> <series>
3-aminopyridine-like

> <frag_id>
x11742

> <clash_score>
0

> <docking_score>
-6.507935523986816

> <overlap_score>
0.8839800953865051

> <MMFF_internal_energy>
65.444613975986

> <docked_smiles>
c1cc(cc(c1)Cl)CC(=O)Nc2cncc3c2nc[nH]3

$$$$
