MAT-POS-bb423b95-1_1
  -OEChem-07022116353D

 33 35  0     0  0  0  0  0  0999 V2000
   11.9780    0.4600   23.9150 C   0  0  0  0  0  0  0  0  0  0  0  0
   10.6560    0.0720   23.7350 C   0  0  0  0  0  0  0  0  0  0  0  0
   12.9840   -0.1200   23.1530 C   0  0  0  0  0  0  0  0  0  0  0  0
    6.1064    1.8667   20.8145 C   0  0  0  0  0  0  0  0  0  0  0  0
   11.3360   -1.5050   22.0650 C   0  0  0  0  0  0  0  0  0  0  0  0
    5.5131    3.1203   20.7768 C   0  0  0  0  0  0  0  0  0  0  0  0
    4.7830    2.8210   18.6193 C   0  0  0  0  0  0  0  0  0  0  0  0
    5.2694    0.7212   17.4205 C   0  0  0  0  0  0  0  0  0  0  0  0
    6.4566   -0.9540   18.4506 C   0  0  0  0  0  0  0  0  0  0  0  0
    6.0226    1.0561   19.6764 C   0  0  0  0  0  0  0  0  0  0  0  0
    5.3433    1.5437   18.5470 C   0  0  0  0  0  0  0  0  0  0  0  0
   10.3220   -0.8940   22.7910 C   0  0  0  0  0  0  0  0  0  0  0  0
    6.5902   -0.2224   19.6218 C   0  0  0  0  0  0  0  0  0  0  0  0
   12.6400   -1.1000   22.2390 C   0  0  0  0  0  0  0  0  0  0  0  0
    8.3880   -0.3240   21.3070 C   0  0  0  0  0  0  0  0  0  0  0  0
    8.8810   -1.1900   22.4510 C   0  0  0  0  0  0  0  0  0  0  0  0
    4.8531    3.6186   19.7082 N   0  0  0  0  0  0  0  0  0  0  0  0
    5.8106   -0.5152   17.3479 N   0  0  0  0  0  0  0  0  0  0  0  0
    7.2820   -0.7860   20.6970 N   0  0  0  0  0  0  0  0  0  0  0  0
    8.9170    0.7530   21.0260 O   0  0  0  0  0  0  0  0  0  0  0  0
   13.8840   -1.8490   21.2740 Cl  0  0  0  0  0  0  0  0  0  0  0  0
   12.2249    1.2198   24.6546 H   0  0  0  0  0  0  0  0  0  0  0  0
    9.8763    0.5350   24.3454 H   0  0  0  0  0  0  0  0  0  0  0  0
   14.0077    0.1988   23.2842 H   0  0  0  0  0  0  0  0  0  0  0  0
    6.6165    1.5487   21.7183 H   0  0  0  0  0  0  0  0  0  0  0  0
   11.0892   -2.3009   21.3624 H   0  0  0  0  0  0  0  0  0  0  0  0
    5.5561    3.7784   21.6387 H   0  0  0  0  0  0  0  0  0  0  0  0
    4.2462    3.2509   17.7786 H   0  0  0  0  0  0  0  0  0  0  0  0
    4.7576    1.0441   16.5185 H   0  0  0  0  0  0  0  0  0  0  0  0
    6.8783   -1.9509   18.3577 H   0  0  0  0  0  0  0  0  0  0  0  0
    8.7774   -2.2383   22.1732 H   0  0  0  0  0  0  0  0  0  0  0  0
    8.2557   -1.0153   23.3257 H   0  0  0  0  0  0  0  0  0  0  0  0
    6.8982   -1.6620   21.0676 H   0  0  0  0  0  0  0  0  0  0  0  0
  1  2  1  0  0  0  0
  1  3  2  0  0  0  0
  2 12  2  0  0  0  0
  3 14  1  0  0  0  0
  4  6  2  0  0  0  0
  4 10  1  0  0  0  0
  5 12  1  0  0  0  0
  5 14  2  0  0  0  0
  6 17  1  0  0  0  0
  7 11  1  0  0  0  0
  7 17  2  0  0  0  0
  8 11  2  0  0  0  0
  8 18  1  0  0  0  0
  9 13  1  0  0  0  0
  9 18  2  0  0  0  0
 10 11  1  0  0  0  0
 10 13  2  0  0  0  0
 12 16  1  0  0  0  0
 13 19  1  0  0  0  0
 14 21  1  0  0  0  0
 15 16  1  0  0  0  0
 15 19  1  0  0  0  0
 15 20  2  0  0  0  0
  1 22  1  0  0  0  0
  2 23  1  0  0  0  0
  3 24  1  0  0  0  0
  4 25  1  0  0  0  0
  5 26  1  0  0  0  0
  6 27  1  0  0  0  0
  7 28  1  0  0  0  0
  8 29  1  0  0  0  0
  9 30  1  0  0  0  0
 16 31  1  0  0  0  0
 16 32  1  0  0  0  0
 19 33  1  0  0  0  0
M  END
> <compound>
MAT-POS-bb423b95-1

> <compound_smiles>
c1cc(cc(c1)Cl)CC(=O)Nc2cncc3c2ccnc3

> <enantiomer_smiles>
c1cc(cc(c1)Cl)CC(=O)Nc2cncc3c2ccnc3

> <scaffold>
chlorobenzene-linker

> <canonical_CID>
MAT-POS-bb423b95-1

> <r_inhibition_at_20_uM>

> <r_inhibition_at_50_uM>

> <r_avg_IC50>
3.70893090095161

> <f_inhibition_at_20_uM>

> <f_inhibition_at_50_uM>

> <f_avg_IC50>
7.94165822521731

> <f_avg_pIC50>

> <relative_solubility_at_20_uM>

> <relative_solubility_at_100_uM>

> <trypsin_IC50>

> <NMR_std_ratio>

> <acrylamide>
False

> <chloroacetamide>
False

> <series>
3-aminopyridine-like

> <frag_id>
x11542

> <clash_score>
0.6471388645896042

> <docking_score>
-4.813929557800293

> <overlap_score>
0.8415303230285645

> <MMFF_internal_energy>
90.95024614189455

> <docked_smiles>
c1cc(cc(c1)Cl)CC(=O)Nc2cncc3c2ccnc3

$$$$
