MAT-POS-bb423b95-5_1
  -OEChem-07022116353D

 37 38  0     0  0  0  0  0  0999 V2000
   11.9780    0.4600   23.9150 C   0  0  0  0  0  0  0  0  0  0  0  0
   10.6560    0.0720   23.7350 C   0  0  0  0  0  0  0  0  0  0  0  0
   12.9840   -0.1200   23.1530 C   0  0  0  0  0  0  0  0  0  0  0  0
    4.6234    0.7522   18.6081 C   0  0  0  0  0  0  0  0  0  0  0  0
   11.3360   -1.5050   22.0650 C   0  0  0  0  0  0  0  0  0  0  0  0
    5.3564    0.9068   17.4425 C   0  0  0  0  0  0  0  0  0  0  0  0
    7.2357   -0.0071   18.3972 C   0  0  0  0  0  0  0  0  0  0  0  0
   10.3220   -0.8940   22.7910 C   0  0  0  0  0  0  0  0  0  0  0  0
    5.2597    0.1852   19.7067 C   0  0  0  0  0  0  0  0  0  0  0  0
    6.5908   -0.2043   19.6076 C   0  0  0  0  0  0  0  0  0  0  0  0
   12.6400   -1.1000   22.2390 C   0  0  0  0  0  0  0  0  0  0  0  0
    8.3880   -0.3240   21.3070 C   0  0  0  0  0  0  0  0  0  0  0  0
    5.0910    0.8179   22.1408 C   0  0  0  0  0  0  0  0  0  0  0  0
    4.3627   -1.4726   21.3804 C   0  0  0  0  0  0  0  0  0  0  0  0
    8.8810   -1.1900   22.4510 C   0  0  0  0  0  0  0  0  0  0  0  0
    4.4934    0.0073   20.9763 C   0  0  0  0  0  0  0  0  0  0  0  0
    6.6508    0.5405   17.3083 N   0  0  0  0  0  0  0  0  0  0  0  0
    7.2820   -0.7860   20.6970 N   0  0  0  0  0  0  0  0  0  0  0  0
    8.9170    0.7530   21.0260 O   0  0  0  0  0  0  0  0  0  0  0  0
   13.8840   -1.8490   21.2740 Cl  0  0  0  0  0  0  0  0  0  0  0  0
   12.2249    1.2198   24.6546 H   0  0  0  0  0  0  0  0  0  0  0  0
    9.8763    0.5350   24.3454 H   0  0  0  0  0  0  0  0  0  0  0  0
   14.0077    0.1988   23.2842 H   0  0  0  0  0  0  0  0  0  0  0  0
    3.5863    1.0668   18.6527 H   0  0  0  0  0  0  0  0  0  0  0  0
   11.0892   -2.3009   21.3624 H   0  0  0  0  0  0  0  0  0  0  0  0
    4.9063    1.3439   16.5573 H   0  0  0  0  0  0  0  0  0  0  0  0
    8.2746   -0.2909   18.2576 H   0  0  0  0  0  0  0  0  0  0  0  0
    6.1238    0.5199   22.3520 H   0  0  0  0  0  0  0  0  0  0  0  0
    4.5115    0.6824   23.0605 H   0  0  0  0  0  0  0  0  0  0  0  0
    5.0945    1.8872   21.9012 H   0  0  0  0  0  0  0  0  0  0  0  0
    5.3527   -1.9173   21.5316 H   0  0  0  0  0  0  0  0  0  0  0  0
    3.8488   -2.0537   20.6070 H   0  0  0  0  0  0  0  0  0  0  0  0
    3.7987   -1.5883   22.3124 H   0  0  0  0  0  0  0  0  0  0  0  0
    8.7709   -2.2387   22.1706 H   0  0  0  0  0  0  0  0  0  0  0  0
    8.2491   -1.0157   23.3232 H   0  0  0  0  0  0  0  0  0  0  0  0
    3.4604    0.3796   20.8438 H   0  0  0  0  0  0  0  0  0  0  0  0
    6.8973   -1.6552   21.0612 H   0  0  0  0  0  0  0  0  0  0  0  0
  1  2  2  0  0  0  0
  1  3  1  0  0  0  0
  2  8  1  0  0  0  0
  3 11  2  0  0  0  0
  4  6  2  0  0  0  0
  4  9  1  0  0  0  0
  5  8  2  0  0  0  0
  5 11  1  0  0  0  0
  6 17  1  0  0  0  0
  7 10  1  0  0  0  0
  7 17  2  0  0  0  0
  8 15  1  0  0  0  0
  9 10  2  0  0  0  0
  9 16  1  0  0  0  0
 10 18  1  0  0  0  0
 11 20  1  0  0  0  0
 12 15  1  0  0  0  0
 12 18  1  0  0  0  0
 12 19  2  0  0  0  0
 13 16  1  0  0  0  0
 14 16  1  0  0  0  0
  1 21  1  0  0  0  0
  2 22  1  0  0  0  0
  3 23  1  0  0  0  0
  4 24  1  0  0  0  0
  5 25  1  0  0  0  0
  6 26  1  0  0  0  0
  7 27  1  0  0  0  0
 13 28  1  0  0  0  0
 13 29  1  0  0  0  0
 13 30  1  0  0  0  0
 14 31  1  0  0  0  0
 14 32  1  0  0  0  0
 14 33  1  0  0  0  0
 15 34  1  0  0  0  0
 15 35  1  0  0  0  0
 16 36  1  0  0  0  0
 18 37  1  0  0  0  0
M  END
> <compound>
MAT-POS-bb423b95-5

> <compound_smiles>
CC(C)c1ccncc1NC(=O)Cc2cccc(c2)Cl

> <enantiomer_smiles>
CC(C)c1ccncc1NC(=O)Cc2cccc(c2)Cl

> <scaffold>
chlorobenzene-linker

> <canonical_CID>
MAT-POS-bb423b95-5

> <r_inhibition_at_20_uM>

> <r_inhibition_at_50_uM>

> <r_avg_IC50>
26.3771424007404

> <f_inhibition_at_20_uM>

> <f_inhibition_at_50_uM>

> <f_avg_IC50>
19.5089876933868

> <f_avg_pIC50>

> <relative_solubility_at_20_uM>

> <relative_solubility_at_100_uM>

> <trypsin_IC50>

> <NMR_std_ratio>

> <acrylamide>
False

> <chloroacetamide>
False

> <series>
3-aminopyridine-like

> <frag_id>

> <clash_score>
0

> <docking_score>
-8.087563514709473

> <overlap_score>
0.8636133670806885

> <MMFF_internal_energy>
84.12015779655047

> <docked_smiles>
CC(C)c1ccncc1NC(=O)Cc2cccc(c2)Cl

$$$$
