MAT-POS-bfb445d4-2_1
  -OEChem-07022116353D

 31 33  0     0  0  0  0  0  0999 V2000
    3.5133    2.3986   19.4106 C   0  0  0  0  0  0  0  0  0  0  0  0
    3.9319    2.0971   20.7101 C   0  0  0  0  0  0  0  0  0  0  0  0
   11.9780    0.4600   23.9150 C   0  0  0  0  0  0  0  0  0  0  0  0
   10.6560    0.0720   23.7350 C   0  0  0  0  0  0  0  0  0  0  0  0
    4.1324    1.8152   18.2973 C   0  0  0  0  0  0  0  0  0  0  0  0
    4.9823    1.2034   20.9473 C   0  0  0  0  0  0  0  0  0  0  0  0
   12.9840   -0.1200   23.1530 C   0  0  0  0  0  0  0  0  0  0  0  0
   11.3360   -1.5050   22.0650 C   0  0  0  0  0  0  0  0  0  0  0  0
   10.3220   -0.8940   22.7910 C   0  0  0  0  0  0  0  0  0  0  0  0
    5.1866    0.9178   18.5214 C   0  0  0  0  0  0  0  0  0  0  0  0
    5.5799    0.6380   19.8229 C   0  0  0  0  0  0  0  0  0  0  0  0
   12.6400   -1.1000   22.2390 C   0  0  0  0  0  0  0  0  0  0  0  0
    8.3880   -0.3240   21.3070 C   0  0  0  0  0  0  0  0  0  0  0  0
    8.8810   -1.1900   22.4510 C   0  0  0  0  0  0  0  0  0  0  0  0
    5.9664    0.2068   17.6479 N   0  0  0  0  0  0  0  0  0  0  0  0
    6.8333   -0.5075   18.3575 N   0  0  0  0  0  0  0  0  0  0  0  0
    6.6029   -0.2501   19.6557 N   0  0  0  0  0  0  0  0  0  0  0  0
    7.2820   -0.7860   20.6970 N   0  0  0  0  0  0  0  0  0  0  0  0
    8.9170    0.7530   21.0260 O   0  0  0  0  0  0  0  0  0  0  0  0
   13.8840   -1.8490   21.2740 Cl  0  0  0  0  0  0  0  0  0  0  0  0
    2.6939    3.0974   19.2604 H   0  0  0  0  0  0  0  0  0  0  0  0
    3.4319    2.5658   21.5544 H   0  0  0  0  0  0  0  0  0  0  0  0
   12.2249    1.2198   24.6546 H   0  0  0  0  0  0  0  0  0  0  0  0
    9.8763    0.5350   24.3454 H   0  0  0  0  0  0  0  0  0  0  0  0
    3.8009    2.0553   17.2924 H   0  0  0  0  0  0  0  0  0  0  0  0
    5.3064    0.9701   21.9550 H   0  0  0  0  0  0  0  0  0  0  0  0
   14.0077    0.1988   23.2842 H   0  0  0  0  0  0  0  0  0  0  0  0
   11.0892   -2.3009   21.3624 H   0  0  0  0  0  0  0  0  0  0  0  0
    8.2520   -1.0134   23.3227 H   0  0  0  0  0  0  0  0  0  0  0  0
    8.7794   -2.2394   22.1763 H   0  0  0  0  0  0  0  0  0  0  0  0
    6.8840   -1.7035   21.0887 H   0  0  0  0  0  0  0  0  0  0  0  0
  1  2  1  0  0  0  0
  1  5  2  0  0  0  0
  2  6  2  0  0  0  0
  3  4  2  0  0  0  0
  3  7  1  0  0  0  0
  4  9  1  0  0  0  0
  5 10  1  0  0  0  0
  6 11  1  0  0  0  0
  7 12  2  0  0  0  0
  8  9  2  0  0  0  0
  8 12  1  0  0  0  0
  9 14  1  0  0  0  0
 10 11  2  0  0  0  0
 10 15  1  0  0  0  0
 11 17  1  0  0  0  0
 12 20  1  0  0  0  0
 13 14  1  0  0  0  0
 13 18  1  0  0  0  0
 13 19  2  0  0  0  0
 15 16  2  0  0  0  0
 16 17  1  0  0  0  0
 17 18  1  0  0  0  0
  1 21  1  0  0  0  0
  2 22  1  0  0  0  0
  3 23  1  0  0  0  0
  4 24  1  0  0  0  0
  5 25  1  0  0  0  0
  6 26  1  0  0  0  0
  7 27  1  0  0  0  0
  8 28  1  0  0  0  0
 14 29  1  0  0  0  0
 14 30  1  0  0  0  0
 18 31  1  0  0  0  0
M  END
> <compound>
MAT-POS-bfb445d4-2

> <compound_smiles>
c1ccc2c(c1)nnn2NC(=O)Cc3cccc(c3)Cl

> <enantiomer_smiles>
c1ccc2c(c1)nnn2NC(=O)Cc3cccc(c3)Cl

> <scaffold>
chlorobenzene-linker

> <canonical_CID>
MAT-POS-bfb445d4-2

> <r_inhibition_at_20_uM>

> <r_inhibition_at_50_uM>

> <r_avg_IC50>
31.0430348120063

> <f_inhibition_at_20_uM>

> <f_inhibition_at_50_uM>

> <f_avg_IC50>
5.80242437708152

> <f_avg_pIC50>

> <relative_solubility_at_20_uM>

> <relative_solubility_at_100_uM>

> <trypsin_IC50>

> <NMR_std_ratio>

> <acrylamide>
False

> <chloroacetamide>
False

> <series>
3-aminopyridine-like

> <frag_id>
x11789

> <clash_score>
0

> <docking_score>
-8.586787223815918

> <overlap_score>
0.9577213525772095

> <MMFF_internal_energy>
14.390258226278698

> <docked_smiles>
c1ccc2c(c1)nnn2NC(=O)Cc3cccc(c3)Cl

$$$$
