MIC-UNK-50cce87d-3_1
  -OEChem-07022116353D

 37 39  0     0  0  0  0  0  0999 V2000
    2.5654    1.0080   19.6910 C   0  0  0  0  0  0  0  0  0  0  0  0
   11.9780    0.4600   23.9150 C   0  0  0  0  0  0  0  0  0  0  0  0
    3.3245    1.1473   18.5293 C   0  0  0  0  0  0  0  0  0  0  0  0
    3.1376    0.4597   20.8365 C   0  0  0  0  0  0  0  0  0  0  0  0
   10.6560    0.0720   23.7350 C   0  0  0  0  0  0  0  0  0  0  0  0
   12.9840   -0.1200   23.1530 C   0  0  0  0  0  0  0  0  0  0  0  0
   11.3360   -1.5050   22.0650 C   0  0  0  0  0  0  0  0  0  0  0  0
    5.4730    0.8526   17.3722 C   0  0  0  0  0  0  0  0  0  0  0  0
    7.2925   -0.0581   18.4375 C   0  0  0  0  0  0  0  0  0  0  0  0
    4.6676    0.7364   18.5069 C   0  0  0  0  0  0  0  0  0  0  0  0
    5.2506    0.1809   19.6646 C   0  0  0  0  0  0  0  0  0  0  0  0
   10.3220   -0.8940   22.7910 C   0  0  0  0  0  0  0  0  0  0  0  0
    4.4715    0.0482   20.8256 C   0  0  0  0  0  0  0  0  0  0  0  0
    6.5902   -0.2223   19.6217 C   0  0  0  0  0  0  0  0  0  0  0  0
   12.6400   -1.1000   22.2390 C   0  0  0  0  0  0  0  0  0  0  0  0
    8.3880   -0.3240   21.3070 C   0  0  0  0  0  0  0  0  0  0  0  0
    4.9737   -0.5250   22.1151 C   0  0  0  0  0  0  0  0  0  0  0  0
    8.8810   -1.1900   22.4510 C   0  0  0  0  0  0  0  0  0  0  0  0
    6.7683    0.4694   17.3108 N   0  0  0  0  0  0  0  0  0  0  0  0
    7.2820   -0.7860   20.6970 N   0  0  0  0  0  0  0  0  0  0  0  0
    8.9170    0.7530   21.0260 O   0  0  0  0  0  0  0  0  0  0  0  0
   13.8840   -1.8490   21.2740 Cl  0  0  0  0  0  0  0  0  0  0  0  0
    1.5274    1.3275   19.7020 H   0  0  0  0  0  0  0  0  0  0  0  0
   12.2249    1.2198   24.6546 H   0  0  0  0  0  0  0  0  0  0  0  0
    2.8624    1.5778   17.6440 H   0  0  0  0  0  0  0  0  0  0  0  0
    2.5322    0.3570   21.7338 H   0  0  0  0  0  0  0  0  0  0  0  0
    9.8763    0.5350   24.3454 H   0  0  0  0  0  0  0  0  0  0  0  0
   14.0077    0.1988   23.2842 H   0  0  0  0  0  0  0  0  0  0  0  0
   11.0892   -2.3009   21.3624 H   0  0  0  0  0  0  0  0  0  0  0  0
    5.0860    1.2716   16.4473 H   0  0  0  0  0  0  0  0  0  0  0  0
    8.3340   -0.3550   18.3510 H   0  0  0  0  0  0  0  0  0  0  0  0
    4.8077   -1.6068   22.1351 H   0  0  0  0  0  0  0  0  0  0  0  0
    6.0442   -0.3296   22.2403 H   0  0  0  0  0  0  0  0  0  0  0  0
    4.4607   -0.0729   22.9711 H   0  0  0  0  0  0  0  0  0  0  0  0
    8.7774   -2.2383   22.1732 H   0  0  0  0  0  0  0  0  0  0  0  0
    8.2557   -1.0153   23.3257 H   0  0  0  0  0  0  0  0  0  0  0  0
    6.8982   -1.6620   21.0675 H   0  0  0  0  0  0  0  0  0  0  0  0
  1  3  1  0  0  0  0
  1  4  2  0  0  0  0
  2  5  2  0  0  0  0
  2  6  1  0  0  0  0
  3 10  2  0  0  0  0
  4 13  1  0  0  0  0
  5 12  1  0  0  0  0
  6 15  2  0  0  0  0
  7 12  2  0  0  0  0
  7 15  1  0  0  0  0
  8 10  1  0  0  0  0
  8 19  2  0  0  0  0
  9 14  2  0  0  0  0
  9 19  1  0  0  0  0
 10 11  1  0  0  0  0
 11 13  2  0  0  0  0
 11 14  1  0  0  0  0
 12 18  1  0  0  0  0
 13 17  1  0  0  0  0
 14 20  1  0  0  0  0
 15 22  1  0  0  0  0
 16 18  1  0  0  0  0
 16 20  1  0  0  0  0
 16 21  2  0  0  0  0
  1 23  1  0  0  0  0
  2 24  1  0  0  0  0
  3 25  1  0  0  0  0
  4 26  1  0  0  0  0
  5 27  1  0  0  0  0
  6 28  1  0  0  0  0
  7 29  1  0  0  0  0
  8 30  1  0  0  0  0
  9 31  1  0  0  0  0
 17 32  1  0  0  0  0
 17 33  1  0  0  0  0
 17 34  1  0  0  0  0
 18 35  1  0  0  0  0
 18 36  1  0  0  0  0
 20 37  1  0  0  0  0
M  END
> <compound>
MIC-UNK-50cce87d-3

> <compound_smiles>
Cc1cccc2c1c(cnc2)NC(=O)Cc3cccc(c3)Cl

> <enantiomer_smiles>
Cc1cccc2c1c(cnc2)NC(=O)Cc3cccc(c3)Cl

> <scaffold>
chlorobenzene-linker

> <canonical_CID>
MIC-UNK-50cce87d-3

> <r_inhibition_at_20_uM>

> <r_inhibition_at_50_uM>

> <r_avg_IC50>

> <f_inhibition_at_20_uM>

> <f_inhibition_at_50_uM>

> <f_avg_IC50>
0.331374883454707

> <f_avg_pIC50>

> <relative_solubility_at_20_uM>

> <relative_solubility_at_100_uM>

> <trypsin_IC50>

> <NMR_std_ratio>

> <acrylamide>
False

> <chloroacetamide>
False

> <series>
3-aminopyridine-like

> <frag_id>

> <clash_score>
0

> <docking_score>
-6.125471115112305

> <overlap_score>
0.9037189483642578

> <MMFF_internal_energy>
110.35726259136425

> <docked_smiles>
Cc1cccc2c1c(cnc2)NC(=O)Cc3cccc(c3)Cl

$$$$
