MIC-UNK-08cd9c58-1_1
  -OEChem-07022116353D

 33 35  0     0  0  0  0  0  0999 V2000
   11.9780    0.4600   23.9150 C   0  0  0  0  0  0  0  0  0  0  0  0
    5.5272    3.1241   20.8227 C   0  0  0  0  0  0  0  0  0  0  0  0
    6.1072    1.8628   20.8151 C   0  0  0  0  0  0  0  0  0  0  0  0
   10.6560    0.0720   23.7350 C   0  0  0  0  0  0  0  0  0  0  0  0
   12.9840   -0.1200   23.1530 C   0  0  0  0  0  0  0  0  0  0  0  0
   11.3360   -1.5050   22.0650 C   0  0  0  0  0  0  0  0  0  0  0  0
    4.8753    3.5360   19.6768 C   0  0  0  0  0  0  0  0  0  0  0  0
    5.2704    0.7384   17.4473 C   0  0  0  0  0  0  0  0  0  0  0  0
    6.4564   -0.9509   18.4537 C   0  0  0  0  0  0  0  0  0  0  0  0
    6.0202    1.0557   19.6727 C   0  0  0  0  0  0  0  0  0  0  0  0
   10.3220   -0.8940   22.7910 C   0  0  0  0  0  0  0  0  0  0  0  0
    5.3347    1.5656   18.5561 C   0  0  0  0  0  0  0  0  0  0  0  0
    6.5902   -0.2223   19.6218 C   0  0  0  0  0  0  0  0  0  0  0  0
   12.6400   -1.1000   22.2390 C   0  0  0  0  0  0  0  0  0  0  0  0
    8.3880   -0.3240   21.3070 C   0  0  0  0  0  0  0  0  0  0  0  0
    8.8810   -1.1900   22.4510 C   0  0  0  0  0  0  0  0  0  0  0  0
    5.8086   -0.5013   17.3611 N   0  0  0  0  0  0  0  0  0  0  0  0
    4.7686    2.7887   18.5544 N   0  0  0  0  0  0  0  0  0  0  0  0
    7.2820   -0.7860   20.6970 N   0  0  0  0  0  0  0  0  0  0  0  0
    8.9170    0.7530   21.0260 O   0  0  0  0  0  0  0  0  0  0  0  0
   13.8840   -1.8490   21.2740 Cl  0  0  0  0  0  0  0  0  0  0  0  0
   12.2249    1.2198   24.6546 H   0  0  0  0  0  0  0  0  0  0  0  0
    5.5849    3.7622   21.6966 H   0  0  0  0  0  0  0  0  0  0  0  0
    6.6236    1.5289   21.7117 H   0  0  0  0  0  0  0  0  0  0  0  0
    9.8763    0.5350   24.3454 H   0  0  0  0  0  0  0  0  0  0  0  0
   14.0077    0.1988   23.2842 H   0  0  0  0  0  0  0  0  0  0  0  0
   11.0892   -2.3009   21.3624 H   0  0  0  0  0  0  0  0  0  0  0  0
    4.4047    4.5125   19.6262 H   0  0  0  0  0  0  0  0  0  0  0  0
    4.7572    1.0627   16.5457 H   0  0  0  0  0  0  0  0  0  0  0  0
    6.8767   -1.9473   18.3543 H   0  0  0  0  0  0  0  0  0  0  0  0
    8.7774   -2.2383   22.1732 H   0  0  0  0  0  0  0  0  0  0  0  0
    8.2557   -1.0153   23.3257 H   0  0  0  0  0  0  0  0  0  0  0  0
    6.8982   -1.6620   21.0676 H   0  0  0  0  0  0  0  0  0  0  0  0
  1  4  1  0  0  0  0
  1  5  2  0  0  0  0
  2  3  2  0  0  0  0
  2  7  1  0  0  0  0
  3 10  1  0  0  0  0
  4 11  2  0  0  0  0
  5 14  1  0  0  0  0
  6 11  1  0  0  0  0
  6 14  2  0  0  0  0
  7 18  2  0  0  0  0
  8 12  2  0  0  0  0
  8 17  1  0  0  0  0
  9 13  1  0  0  0  0
  9 17  2  0  0  0  0
 10 12  1  0  0  0  0
 10 13  2  0  0  0  0
 11 16  1  0  0  0  0
 12 18  1  0  0  0  0
 13 19  1  0  0  0  0
 14 21  1  0  0  0  0
 15 16  1  0  0  0  0
 15 19  1  0  0  0  0
 15 20  2  0  0  0  0
  1 22  1  0  0  0  0
  2 23  1  0  0  0  0
  3 24  1  0  0  0  0
  4 25  1  0  0  0  0
  5 26  1  0  0  0  0
  6 27  1  0  0  0  0
  7 28  1  0  0  0  0
  8 29  1  0  0  0  0
  9 30  1  0  0  0  0
 16 31  1  0  0  0  0
 16 32  1  0  0  0  0
 19 33  1  0  0  0  0
M  END
> <compound>
MIC-UNK-08cd9c58-1

> <compound_smiles>
c1cc(cc(c1)Cl)CC(=O)Nc2cncc3c2cccn3

> <enantiomer_smiles>
c1cc(cc(c1)Cl)CC(=O)Nc2cncc3c2cccn3

> <scaffold>
chlorobenzene-linker

> <canonical_CID>
MIC-UNK-08cd9c58-1

> <r_inhibition_at_20_uM>

> <r_inhibition_at_50_uM>

> <r_avg_IC50>
57.9270096444696

> <f_inhibition_at_20_uM>

> <f_inhibition_at_50_uM>

> <f_avg_IC50>
67.1123602063983

> <f_avg_pIC50>

> <relative_solubility_at_20_uM>

> <relative_solubility_at_100_uM>

> <trypsin_IC50>

> <NMR_std_ratio>

> <acrylamide>
False

> <chloroacetamide>
False

> <series>
3-aminopyridine-like

> <frag_id>
x11548

> <clash_score>
0.6265809004140106

> <docking_score>
-6.587357521057129

> <overlap_score>
0.8436579704284668

> <MMFF_internal_energy>
110.72853838759319

> <docked_smiles>
c1cc(cc(c1)Cl)CC(=O)Nc2cncc3c2cccn3

$$$$
