PET-UNK-bbe8d7ff-2_1
  -OEChem-07022116353D

 35 36  0     0  0  0  0  0  0999 V2000
    6.2676   -2.0921   22.4576 C   0  0  0  0  0  0  0  0  0  0  0  0
   11.9780    0.4600   23.9150 C   0  0  0  0  0  0  0  0  0  0  0  0
   10.6560    0.0720   23.7350 C   0  0  0  0  0  0  0  0  0  0  0  0
   12.9840   -0.1200   23.1530 C   0  0  0  0  0  0  0  0  0  0  0  0
    5.1343    1.7026   18.8987 C   0  0  0  0  0  0  0  0  0  0  0  0
   11.3360   -1.5050   22.0650 C   0  0  0  0  0  0  0  0  0  0  0  0
    5.5896    1.4646   17.6119 C   0  0  0  0  0  0  0  0  0  0  0  0
    7.0577   -0.1484   18.3336 C   0  0  0  0  0  0  0  0  0  0  0  0
   10.3220   -0.8940   22.7910 C   0  0  0  0  0  0  0  0  0  0  0  0
    5.6907    0.9593   19.9338 C   0  0  0  0  0  0  0  0  0  0  0  0
    6.6714    0.0141   19.6543 C   0  0  0  0  0  0  0  0  0  0  0  0
   12.6400   -1.1000   22.2390 C   0  0  0  0  0  0  0  0  0  0  0  0
    8.3880   -0.3240   21.3070 C   0  0  0  0  0  0  0  0  0  0  0  0
    5.2189    1.1956   21.3310 C   0  0  0  0  0  0  0  0  0  0  0  0
    6.6710   -2.0764   21.0526 C   0  0  0  0  0  0  0  0  0  0  0  0
    8.8810   -1.1900   22.4510 C   0  0  0  0  0  0  0  0  0  0  0  0
    5.9458   -2.1077   23.5723 N   0  0  0  0  0  0  0  0  0  0  0  0
    6.5404    0.5551   17.3015 N   0  0  0  0  0  0  0  0  0  0  0  0
    7.2820   -0.7860   20.6970 N   0  0  0  0  0  0  0  0  0  0  0  0
    8.9170    0.7530   21.0260 O   0  0  0  0  0  0  0  0  0  0  0  0
   13.8840   -1.8490   21.2740 Cl  0  0  0  0  0  0  0  0  0  0  0  0
   12.2249    1.2198   24.6546 H   0  0  0  0  0  0  0  0  0  0  0  0
    9.8763    0.5350   24.3454 H   0  0  0  0  0  0  0  0  0  0  0  0
   14.0077    0.1988   23.2842 H   0  0  0  0  0  0  0  0  0  0  0  0
    4.3678    2.4475   19.0832 H   0  0  0  0  0  0  0  0  0  0  0  0
   11.0892   -2.3009   21.3624 H   0  0  0  0  0  0  0  0  0  0  0  0
    5.1878    2.0181   16.7695 H   0  0  0  0  0  0  0  0  0  0  0  0
    7.8183   -0.8707   18.0520 H   0  0  0  0  0  0  0  0  0  0  0  0
    4.3723    0.5389   21.5622 H   0  0  0  0  0  0  0  0  0  0  0  0
    6.0185    1.0039   22.0570 H   0  0  0  0  0  0  0  0  0  0  0  0
    4.9027    2.2367   21.4717 H   0  0  0  0  0  0  0  0  0  0  0  0
    7.4063   -2.8590   20.8449 H   0  0  0  0  0  0  0  0  0  0  0  0
    5.8110   -2.2277   20.3941 H   0  0  0  0  0  0  0  0  0  0  0  0
    8.7925   -2.2408   22.1686 H   0  0  0  0  0  0  0  0  0  0  0  0
    8.2587   -1.0122   23.3300 H   0  0  0  0  0  0  0  0  0  0  0  0
  1 15  1  0  0  0  0
  1 17  3  0  0  0  0
  2  3  2  0  0  0  0
  2  4  1  0  0  0  0
  3  9  1  0  0  0  0
  4 12  2  0  0  0  0
  5  7  2  0  0  0  0
  5 10  1  0  0  0  0
  6  9  2  0  0  0  0
  6 12  1  0  0  0  0
  7 18  1  0  0  0  0
  8 11  1  0  0  0  0
  8 18  2  0  0  0  0
  9 16  1  0  0  0  0
 10 11  2  0  0  0  0
 10 14  1  0  0  0  0
 11 19  1  0  0  0  0
 12 21  1  0  0  0  0
 13 16  1  0  0  0  0
 13 19  1  0  0  0  0
 13 20  2  0  0  0  0
 15 19  1  0  0  0  0
  2 22  1  0  0  0  0
  3 23  1  0  0  0  0
  4 24  1  0  0  0  0
  5 25  1  0  0  0  0
  6 26  1  0  0  0  0
  7 27  1  0  0  0  0
  8 28  1  0  0  0  0
 14 29  1  0  0  0  0
 14 30  1  0  0  0  0
 14 31  1  0  0  0  0
 15 32  1  0  0  0  0
 15 33  1  0  0  0  0
 16 34  1  0  0  0  0
 16 35  1  0  0  0  0
M  END
> <compound>
PET-UNK-bbe8d7ff-2

> <compound_smiles>
Cc1ccncc1N(CC#N)C(=O)Cc2cccc(c2)Cl

> <enantiomer_smiles>
Cc1ccncc1N(CC#N)C(=O)Cc2cccc(c2)Cl

> <scaffold>
chlorobenzene-linker

> <canonical_CID>
PET-UNK-bbe8d7ff-2

> <r_inhibition_at_20_uM>

> <r_inhibition_at_50_uM>

> <r_avg_IC50>

> <f_inhibition_at_20_uM>

> <f_inhibition_at_50_uM>

> <f_avg_IC50>
99.5

> <f_avg_pIC50>

> <relative_solubility_at_20_uM>

> <relative_solubility_at_100_uM>

> <trypsin_IC50>

> <NMR_std_ratio>

> <acrylamide>
False

> <chloroacetamide>
False

> <series>
3-aminopyridine-like

> <frag_id>

> <clash_score>
0

> <docking_score>
-10.362383842468262

> <overlap_score>
0.866876482963562

> <MMFF_internal_energy>
101.37729829019422

> <docked_smiles>
Cc1ccncc1N(CC#N)C(=O)Cc2cccc(c2)Cl

$$$$
