PET-UNK-e44ffd04-1_1
  -OEChem-07022116353D

 31 33  0     0  0  0  0  0  0999 V2000
   11.9780    0.4600   23.9150 C   0  0  0  0  0  0  0  0  0  0  0  0
   10.6560    0.0720   23.7350 C   0  0  0  0  0  0  0  0  0  0  0  0
   12.9840   -0.1200   23.1530 C   0  0  0  0  0  0  0  0  0  0  0  0
   11.3360   -1.5050   22.0650 C   0  0  0  0  0  0  0  0  0  0  0  0
   10.3220   -0.8940   22.7910 C   0  0  0  0  0  0  0  0  0  0  0  0
   12.6400   -1.1000   22.2390 C   0  0  0  0  0  0  0  0  0  0  0  0
    4.9793    0.0930   18.1993 C   0  0  0  0  0  0  0  0  0  0  0  0
    6.5436   -0.2072   19.6961 C   0  0  0  0  0  0  0  0  0  0  0  0
    3.8109   -0.2708   17.4736 C   0  0  0  0  0  0  0  0  0  0  0  0
    3.2009   -1.4411   17.7472 C   0  0  0  0  0  0  0  0  0  0  0  0
    3.7091   -2.3452   18.7698 C   0  0  0  0  0  0  0  0  0  0  0  0
    4.8124   -2.0026   19.4556 C   0  0  0  0  0  0  0  0  0  0  0  0
    8.3880   -0.3240   21.3070 C   0  0  0  0  0  0  0  0  0  0  0  0
    8.8810   -1.1900   22.4510 C   0  0  0  0  0  0  0  0  0  0  0  0
    5.7766    1.1395   18.1642 N   0  0  0  0  0  0  0  0  0  0  0  0
    6.7643    0.9486   19.1102 N   0  0  0  0  0  0  0  0  0  0  0  0
    5.4313   -0.7937   19.1641 N   0  0  0  0  0  0  0  0  0  0  0  0
    7.2820   -0.7860   20.6970 N   0  0  0  0  0  0  0  0  0  0  0  0
    8.9170    0.7530   21.0260 O   0  0  0  0  0  0  0  0  0  0  0  0
   13.8840   -1.8490   21.2740 Cl  0  0  0  0  0  0  0  0  0  0  0  0
   12.2249    1.2198   24.6546 H   0  0  0  0  0  0  0  0  0  0  0  0
    9.8763    0.5350   24.3454 H   0  0  0  0  0  0  0  0  0  0  0  0
   14.0077    0.1988   23.2842 H   0  0  0  0  0  0  0  0  0  0  0  0
   11.0892   -2.3009   21.3624 H   0  0  0  0  0  0  0  0  0  0  0  0
    3.4255    0.3962   16.7109 H   0  0  0  0  0  0  0  0  0  0  0  0
    2.3092   -1.7416   17.2079 H   0  0  0  0  0  0  0  0  0  0  0  0
    3.1857   -3.2755   18.9532 H   0  0  0  0  0  0  0  0  0  0  0  0
    5.2395   -2.6316   20.2269 H   0  0  0  0  0  0  0  0  0  0  0  0
    8.7775   -2.2383   22.1732 H   0  0  0  0  0  0  0  0  0  0  0  0
    8.2557   -1.0153   23.3257 H   0  0  0  0  0  0  0  0  0  0  0  0
    6.9401   -1.7071   21.0292 H   0  0  0  0  0  0  0  0  0  0  0  0
  1  2  2  0  0  0  0
  1  3  1  0  0  0  0
  2  5  1  0  0  0  0
  3  6  2  0  0  0  0
  4  5  2  0  0  0  0
  4  6  1  0  0  0  0
  5 14  1  0  0  0  0
  6 20  1  0  0  0  0
  7  9  1  0  0  0  0
  7 15  2  0  0  0  0
  7 17  1  0  0  0  0
  8 16  2  0  0  0  0
  8 17  1  0  0  0  0
  8 18  1  0  0  0  0
  9 10  2  0  0  0  0
 10 11  1  0  0  0  0
 11 12  2  0  0  0  0
 12 17  1  0  0  0  0
 13 14  1  0  0  0  0
 13 18  1  0  0  0  0
 13 19  2  0  0  0  0
 15 16  1  0  0  0  0
  1 21  1  0  0  0  0
  2 22  1  0  0  0  0
  3 23  1  0  0  0  0
  4 24  1  0  0  0  0
  9 25  1  0  0  0  0
 10 26  1  0  0  0  0
 11 27  1  0  0  0  0
 12 28  1  0  0  0  0
 14 29  1  0  0  0  0
 14 30  1  0  0  0  0
 18 31  1  0  0  0  0
M  END
> <compound>
PET-UNK-e44ffd04-1

> <compound_smiles>
c1ccn2c(c1)nnc2NC(=O)Cc3cccc(c3)Cl

> <enantiomer_smiles>
c1ccn2c(c1)nnc2NC(=O)Cc3cccc(c3)Cl

> <scaffold>
chlorobenzene-linker

> <canonical_CID>
PET-UNK-e44ffd04-1

> <r_inhibition_at_20_uM>

> <r_inhibition_at_50_uM>

> <r_avg_IC50>
93.8621436135832

> <f_inhibition_at_20_uM>

> <f_inhibition_at_50_uM>

> <f_avg_IC50>
99.5

> <f_avg_pIC50>

> <relative_solubility_at_20_uM>

> <relative_solubility_at_100_uM>

> <trypsin_IC50>

> <NMR_std_ratio>

> <acrylamide>
False

> <chloroacetamide>
False

> <series>
3-aminopyridine-like

> <frag_id>
x12026

> <clash_score>
4.0038431256247895

> <docking_score>
0.056696176528930664

> <overlap_score>
0.7417444586753845

> <MMFF_internal_energy>
61.745100549970466

> <docked_smiles>
c1ccn2c(c1)nnc2NC(=O)Cc3cccc(c3)Cl

$$$$
