RUB-POS-1325a9ea-22_1
  -OEChem-07022116353D

 33 35  0     0  0  0  0  0  0999 V2000
    3.0218    0.6399   20.6038 C   0  0  0  0  0  0  0  0  0  0  0  0
    2.6872    1.2716   19.3891 C   0  0  0  0  0  0  0  0  0  0  0  0
   11.9780    0.4600   23.9150 C   0  0  0  0  0  0  0  0  0  0  0  0
    4.3061    0.1275   20.8235 C   0  0  0  0  0  0  0  0  0  0  0  0
    3.6287    1.4048   18.3677 C   0  0  0  0  0  0  0  0  0  0  0  0
   10.6560    0.0720   23.7350 C   0  0  0  0  0  0  0  0  0  0  0  0
   12.9840   -0.1200   23.1530 C   0  0  0  0  0  0  0  0  0  0  0  0
   11.3360   -1.5050   22.0650 C   0  0  0  0  0  0  0  0  0  0  0  0
    5.2371    0.2598   19.8120 C   0  0  0  0  0  0  0  0  0  0  0  0
    4.8846    0.8914   18.6107 C   0  0  0  0  0  0  0  0  0  0  0  0
   10.3220   -0.8940   22.7910 C   0  0  0  0  0  0  0  0  0  0  0  0
   12.6400   -1.1000   22.2390 C   0  0  0  0  0  0  0  0  0  0  0  0
    6.6291   -0.1597   19.7353 C   0  0  0  0  0  0  0  0  0  0  0  0
    6.0750    0.8751   17.7501 C   0  0  0  0  0  0  0  0  0  0  0  0
    8.3880   -0.3240   21.3070 C   0  0  0  0  0  0  0  0  0  0  0  0
    8.8810   -1.1900   22.4510 C   0  0  0  0  0  0  0  0  0  0  0  0
    7.0891    0.2089   18.5318 N   0  3  0  0  0  0  0  0  0  0  0  0
    7.2820   -0.7860   20.6970 N   0  0  0  0  0  0  0  0  0  0  0  0
    6.2409    1.3037   16.6293 O   0  0  0  0  0  0  0  0  0  0  0  0
    8.9170    0.7530   21.0260 O   0  0  0  0  0  0  0  0  0  0  0  0
   13.8840   -1.8490   21.2740 Cl  0  0  0  0  0  0  0  0  0  0  0  0
    2.2684    0.5509   21.3825 H   0  0  0  0  0  0  0  0  0  0  0  0
    1.6818    1.6600   19.2489 H   0  0  0  0  0  0  0  0  0  0  0  0
   12.2249    1.2198   24.6546 H   0  0  0  0  0  0  0  0  0  0  0  0
    4.5507   -0.3556   21.7627 H   0  0  0  0  0  0  0  0  0  0  0  0
    3.3770    1.8899   17.4325 H   0  0  0  0  0  0  0  0  0  0  0  0
    9.8763    0.5350   24.3454 H   0  0  0  0  0  0  0  0  0  0  0  0
   14.0077    0.1988   23.2842 H   0  0  0  0  0  0  0  0  0  0  0  0
   11.0892   -2.3009   21.3624 H   0  0  0  0  0  0  0  0  0  0  0  0
    8.2535   -1.0146   23.3240 H   0  0  0  0  0  0  0  0  0  0  0  0
    8.7756   -2.2377   22.1724 H   0  0  0  0  0  0  0  0  0  0  0  0
    8.0420    0.0244   18.2410 H   0  0  0  0  0  0  0  0  0  0  0  0
    6.9404   -1.7043   21.0286 H   0  0  0  0  0  0  0  0  0  0  0  0
  1  2  1  0  0  0  0
  1  4  2  0  0  0  0
  2  5  2  0  0  0  0
  3  6  2  0  0  0  0
  3  7  1  0  0  0  0
  4  9  1  0  0  0  0
  5 10  1  0  0  0  0
  6 11  1  0  0  0  0
  7 12  2  0  0  0  0
  8 11  2  0  0  0  0
  8 12  1  0  0  0  0
  9 10  2  0  0  0  0
  9 13  1  0  0  0  0
 10 14  1  0  0  0  0
 11 16  1  0  0  0  0
 12 21  1  0  0  0  0
 13 17  2  0  0  0  0
 13 18  1  0  0  0  0
 14 17  1  0  0  0  0
 14 19  2  0  0  0  0
 15 16  1  0  0  0  0
 15 18  1  0  0  0  0
 15 20  2  0  0  0  0
  1 22  1  0  0  0  0
  2 23  1  0  0  0  0
  3 24  1  0  0  0  0
  4 25  1  0  0  0  0
  5 26  1  0  0  0  0
  6 27  1  0  0  0  0
  7 28  1  0  0  0  0
  8 29  1  0  0  0  0
 16 30  1  0  0  0  0
 16 31  1  0  0  0  0
 17 32  1  0  0  0  0
 18 33  1  0  0  0  0
M  CHG  1  17   1
M  END
> <compound>
RUB-POS-1325a9ea-22

> <compound_smiles>
c1ccc2c(c1)C(=NC2=O)NC(=O)Cc3cccc(c3)Cl

> <enantiomer_smiles>
c1ccc2c(c1)C(=NC2=O)NC(=O)Cc3cccc(c3)Cl

> <scaffold>
chlorobenzene-linker

> <canonical_CID>
RUB-POS-1325a9ea-22

> <r_inhibition_at_20_uM>

> <r_inhibition_at_50_uM>

> <r_avg_IC50>

> <f_inhibition_at_20_uM>

> <f_inhibition_at_50_uM>

> <f_avg_IC50>
99.5

> <f_avg_pIC50>

> <relative_solubility_at_20_uM>

> <relative_solubility_at_100_uM>

> <trypsin_IC50>

> <NMR_std_ratio>

> <acrylamide>
False

> <chloroacetamide>
False

> <series>
3-aminopyridine-like

> <frag_id>

> <clash_score>
0

> <docking_score>
-4.561781406402588

> <overlap_score>
0.9086366891860962

> <MMFF_internal_energy>
12.655668351443058

> <docked_smiles>
c1ccc2c(c1)C(=[NH+]C2=O)NC(=O)Cc3cccc(c3)Cl

$$$$
