RUB-POS-1325a9ea-14_1
  -OEChem-07022116353D

 34 36  0     0  0  0  0  0  0999 V2000
   11.9780    0.4600   23.9150 C   0  0  0  0  0  0  0  0  0  0  0  0
   10.6560    0.0720   23.7350 C   0  0  0  0  0  0  0  0  0  0  0  0
   12.9840   -0.1200   23.1530 C   0  0  0  0  0  0  0  0  0  0  0  0
   11.3360   -1.5050   22.0650 C   0  0  0  0  0  0  0  0  0  0  0  0
    5.2125    0.7895   17.3915 C   0  0  0  0  0  0  0  0  0  0  0  0
    4.9106    2.8366   18.9782 C   0  0  0  0  0  0  0  0  0  0  0  0
    6.4232   -0.9144   18.4323 C   0  0  0  0  0  0  0  0  0  0  0  0
    5.3267    1.5591   18.5493 C   0  0  0  0  0  0  0  0  0  0  0  0
   10.3220   -0.8940   22.7910 C   0  0  0  0  0  0  0  0  0  0  0  0
    6.0112    1.0341   19.6385 C   0  0  0  0  0  0  0  0  0  0  0  0
    6.5901   -0.2287   19.6269 C   0  0  0  0  0  0  0  0  0  0  0  0
   12.6400   -1.1000   22.2390 C   0  0  0  0  0  0  0  0  0  0  0  0
    8.3880   -0.3240   21.3070 C   0  0  0  0  0  0  0  0  0  0  0  0
    6.5178    1.9519   21.9314 C   0  0  0  0  0  0  0  0  0  0  0  0
    8.8810   -1.1900   22.4510 C   0  0  0  0  0  0  0  0  0  0  0  0
    5.7652   -0.4478   17.3431 N   0  0  0  0  0  0  0  0  0  0  0  0
    5.2901    3.1116   20.2284 N   0  0  0  0  0  0  0  0  0  0  0  0
    5.9539    2.0045   20.6018 N   0  0  0  0  0  0  0  0  0  0  0  0
    7.2820   -0.7860   20.6970 N   0  0  0  0  0  0  0  0  0  0  0  0
    8.9170    0.7530   21.0260 O   0  0  0  0  0  0  0  0  0  0  0  0
   13.8840   -1.8490   21.2740 Cl  0  0  0  0  0  0  0  0  0  0  0  0
   12.2249    1.2198   24.6546 H   0  0  0  0  0  0  0  0  0  0  0  0
    9.8763    0.5350   24.3454 H   0  0  0  0  0  0  0  0  0  0  0  0
   14.0077    0.1988   23.2842 H   0  0  0  0  0  0  0  0  0  0  0  0
   11.0892   -2.3009   21.3624 H   0  0  0  0  0  0  0  0  0  0  0  0
    4.6963    1.1231   16.4997 H   0  0  0  0  0  0  0  0  0  0  0  0
    4.3461    3.5785   18.4313 H   0  0  0  0  0  0  0  0  0  0  0  0
    6.8342   -1.9130   18.3058 H   0  0  0  0  0  0  0  0  0  0  0  0
    7.5352    2.3488   21.8822 H   0  0  0  0  0  0  0  0  0  0  0  0
    5.9058    2.5520   22.6105 H   0  0  0  0  0  0  0  0  0  0  0  0
    6.5271    0.9152   22.2792 H   0  0  0  0  0  0  0  0  0  0  0  0
    8.7774   -2.2383   22.1732 H   0  0  0  0  0  0  0  0  0  0  0  0
    8.2557   -1.0153   23.3257 H   0  0  0  0  0  0  0  0  0  0  0  0
    6.8984   -1.6645   21.0699 H   0  0  0  0  0  0  0  0  0  0  0  0
  1  2  2  0  0  0  0
  1  3  1  0  0  0  0
  2  9  1  0  0  0  0
  3 12  2  0  0  0  0
  4  9  2  0  0  0  0
  4 12  1  0  0  0  0
  5  8  2  0  0  0  0
  5 16  1  0  0  0  0
  6  8  1  0  0  0  0
  6 17  2  0  0  0  0
  7 11  1  0  0  0  0
  7 16  2  0  0  0  0
  8 10  1  0  0  0  0
  9 15  1  0  0  0  0
 10 11  2  0  0  0  0
 10 18  1  0  0  0  0
 11 19  1  0  0  0  0
 12 21  1  0  0  0  0
 13 15  1  0  0  0  0
 13 19  1  0  0  0  0
 13 20  2  0  0  0  0
 14 18  1  0  0  0  0
 17 18  1  0  0  0  0
  1 22  1  0  0  0  0
  2 23  1  0  0  0  0
  3 24  1  0  0  0  0
  4 25  1  0  0  0  0
  5 26  1  0  0  0  0
  6 27  1  0  0  0  0
  7 28  1  0  0  0  0
 14 29  1  0  0  0  0
 14 30  1  0  0  0  0
 14 31  1  0  0  0  0
 15 32  1  0  0  0  0
 15 33  1  0  0  0  0
 19 34  1  0  0  0  0
M  END
> <compound>
RUB-POS-1325a9ea-14

> <compound_smiles>
Cn1c2c(cncc2NC(=O)Cc3cccc(c3)Cl)cn1

> <enantiomer_smiles>
Cn1c2c(cncc2NC(=O)Cc3cccc(c3)Cl)cn1

> <scaffold>
chlorobenzene-linker

> <canonical_CID>
RUB-POS-1325a9ea-14

> <r_inhibition_at_20_uM>

> <r_inhibition_at_50_uM>

> <r_avg_IC50>

> <f_inhibition_at_20_uM>

> <f_inhibition_at_50_uM>

> <f_avg_IC50>
1.49602478359548

> <f_avg_pIC50>

> <relative_solubility_at_20_uM>

> <relative_solubility_at_100_uM>

> <trypsin_IC50>

> <NMR_std_ratio>

> <acrylamide>
False

> <chloroacetamide>
False

> <series>
3-aminopyridine-like

> <frag_id>

> <clash_score>
0

> <docking_score>
-6.326560020446777

> <overlap_score>
0.8466646671295166

> <MMFF_internal_energy>
88.97072989860865

> <docked_smiles>
Cn1c2c(cncc2NC(=O)Cc3cccc(c3)Cl)cn1

$$$$
