SAM-UNK-2684b532-12_1
  -OEChem-07022116353D

 31 32  0     0  0  0  0  0  0999 V2000
   11.9780    0.4600   23.9150 C   0  0  0  0  0  0  0  0  0  0  0  0
   10.6560    0.0720   23.7350 C   0  0  0  0  0  0  0  0  0  0  0  0
   12.9840   -0.1200   23.1530 C   0  0  0  0  0  0  0  0  0  0  0  0
    4.6234    0.7522   18.6081 C   0  0  0  0  0  0  0  0  0  0  0  0
   11.3360   -1.5050   22.0650 C   0  0  0  0  0  0  0  0  0  0  0  0
    5.3564    0.9068   17.4425 C   0  0  0  0  0  0  0  0  0  0  0  0
    7.2357   -0.0071   18.3972 C   0  0  0  0  0  0  0  0  0  0  0  0
   10.3220   -0.8940   22.7910 C   0  0  0  0  0  0  0  0  0  0  0  0
    5.2597    0.1852   19.7067 C   0  0  0  0  0  0  0  0  0  0  0  0
    6.5908   -0.2043   19.6076 C   0  0  0  0  0  0  0  0  0  0  0  0
   12.6400   -1.1000   22.2390 C   0  0  0  0  0  0  0  0  0  0  0  0
    8.3880   -0.3240   21.3070 C   0  0  0  0  0  0  0  0  0  0  0  0
    8.8810   -1.1900   22.4510 C   0  0  0  0  0  0  0  0  0  0  0  0
    4.4934    0.0073   20.9763 C   0  0  0  0  0  0  0  0  0  0  0  0
    6.6508    0.5405   17.3083 N   0  0  0  0  0  0  0  0  0  0  0  0
    7.2820   -0.7860   20.6970 N   0  0  0  0  0  0  0  0  0  0  0  0
    8.9170    0.7530   21.0260 O   0  0  0  0  0  0  0  0  0  0  0  0
    3.2020    0.4433   20.8995 F   0  0  0  0  0  0  0  0  0  0  0  0
    4.4086   -1.2928   21.3836 F   0  0  0  0  0  0  0  0  0  0  0  0
    5.0488    0.6850   22.0218 F   0  0  0  0  0  0  0  0  0  0  0  0
   13.8840   -1.8490   21.2740 Cl  0  0  0  0  0  0  0  0  0  0  0  0
   12.2249    1.2198   24.6546 H   0  0  0  0  0  0  0  0  0  0  0  0
    9.8763    0.5350   24.3454 H   0  0  0  0  0  0  0  0  0  0  0  0
   14.0077    0.1988   23.2842 H   0  0  0  0  0  0  0  0  0  0  0  0
    3.5863    1.0668   18.6527 H   0  0  0  0  0  0  0  0  0  0  0  0
   11.0892   -2.3009   21.3624 H   0  0  0  0  0  0  0  0  0  0  0  0
    4.9063    1.3439   16.5573 H   0  0  0  0  0  0  0  0  0  0  0  0
    8.2746   -0.2909   18.2576 H   0  0  0  0  0  0  0  0  0  0  0  0
    8.7709   -2.2387   22.1706 H   0  0  0  0  0  0  0  0  0  0  0  0
    8.2491   -1.0157   23.3232 H   0  0  0  0  0  0  0  0  0  0  0  0
    6.8973   -1.6552   21.0612 H   0  0  0  0  0  0  0  0  0  0  0  0
  1  2  1  0  0  0  0
  1  3  2  0  0  0  0
  2  8  2  0  0  0  0
  3 11  1  0  0  0  0
  4  6  2  0  0  0  0
  4  9  1  0  0  0  0
  5  8  1  0  0  0  0
  5 11  2  0  0  0  0
  6 15  1  0  0  0  0
  7 10  1  0  0  0  0
  7 15  2  0  0  0  0
  8 13  1  0  0  0  0
  9 10  2  0  0  0  0
  9 14  1  0  0  0  0
 10 16  1  0  0  0  0
 11 21  1  0  0  0  0
 12 13  1  0  0  0  0
 12 16  1  0  0  0  0
 12 17  2  0  0  0  0
 14 18  1  0  0  0  0
 14 19  1  0  0  0  0
 14 20  1  0  0  0  0
  1 22  1  0  0  0  0
  2 23  1  0  0  0  0
  3 24  1  0  0  0  0
  4 25  1  0  0  0  0
  5 26  1  0  0  0  0
  6 27  1  0  0  0  0
  7 28  1  0  0  0  0
 13 29  1  0  0  0  0
 13 30  1  0  0  0  0
 16 31  1  0  0  0  0
M  END
> <compound>
SAM-UNK-2684b532-12

> <compound_smiles>
c1cc(cc(c1)Cl)CC(=O)Nc2cnccc2C(F)(F)F

> <enantiomer_smiles>
c1cc(cc(c1)Cl)CC(=O)Nc2cnccc2C(F)(F)F

> <scaffold>
chlorobenzene-linker

> <canonical_CID>
SAM-UNK-2684b532-12

> <r_inhibition_at_20_uM>

> <r_inhibition_at_50_uM>

> <r_avg_IC50>

> <f_inhibition_at_20_uM>

> <f_inhibition_at_50_uM>

> <f_avg_IC50>
18.1606601875142

> <f_avg_pIC50>

> <relative_solubility_at_20_uM>

> <relative_solubility_at_100_uM>

> <trypsin_IC50>

> <NMR_std_ratio>

> <acrylamide>
False

> <chloroacetamide>
False

> <series>
3-aminopyridine-like

> <frag_id>

> <clash_score>
0

> <docking_score>
-7.470074653625488

> <overlap_score>
0.8884058594703674

> <MMFF_internal_energy>
76.91024291103

> <docked_smiles>
c1cc(cc(c1)Cl)CC(=O)Nc2cnccc2C(F)(F)F

$$$$
